* NGSPICE file created from top_buffer_opamp.ext - technology: sky130A

.subckt sky130_fd_pr__cap_mim_m3_1_UWHR8Z c1_n3382_n1280# c1_n3382_880# c1_n2370_n560#
+ c1_n1358_1600# m3_626_n1320# m3_n1398_n600# c1_n346_n2000# c1_n2370_880# c1_2690_n1280#
+ c1_n346_160# m3_n3422_120# c1_n346_n560# m3_n386_1560# c1_1678_n560# c1_n3382_n560#
+ c1_666_160# c1_n1358_880# m3_n2410_120# m3_n386_840# c1_666_n560# m3_n386_n600#
+ c1_n3382_160# c1_2690_880# m3_n386_n2040# m3_2650_1560# c1_n1358_n2000# c1_666_n1280#
+ m3_1638_n1320# m3_n2410_n1320# c1_n1358_n560# c1_n2370_160# m3_n1398_n1320# m3_2650_840#
+ m3_2650_n600# c1_n346_n1280# c1_1678_880# m3_n3422_n1320# c1_n2370_n2000# m3_626_n2040#
+ m3_2650_n1320# m3_n386_120# m3_1638_840# c1_n1358_160# c1_1678_n2000# c1_2690_160#
+ c1_2690_1600# m3_n1398_840# c1_n3382_n2000# m3_626_840# m3_1638_1560# m3_626_1560#
+ m3_2650_120# m3_n2410_1560# c1_n1358_n1280# c1_1678_160# c1_n2370_1600# m3_1638_n2040#
+ m3_n2410_n2040# m3_1638_n600# c1_2690_n2000# m3_626_n600# m3_n2410_n600# m3_1638_120#
+ m3_n1398_n2040# c1_n346_880# c1_n346_1600# m3_n3422_840# m3_n3422_1560# c1_n2370_n1280#
+ c1_2690_n560# m3_n3422_n2040# m3_n386_n1320# m3_n1398_120# c1_1678_1600# c1_666_1600#
+ c1_n3382_1600# m3_2650_n2040# c1_666_n2000# c1_1678_n1280# c1_666_880# m3_n3422_n600#
+ m3_626_120# m3_n2410_840# m3_n1398_1560#
X0 c1_666_1600# m3_626_1560# sky130_fd_pr__cap_mim_m3_1 l=2 w=2
X1 c1_2690_880# m3_2650_840# sky130_fd_pr__cap_mim_m3_1 l=2 w=2
X2 c1_666_n560# m3_626_n600# sky130_fd_pr__cap_mim_m3_1 l=2 w=2
X3 c1_n346_1600# m3_n386_1560# sky130_fd_pr__cap_mim_m3_1 l=2 w=2
X4 c1_1678_1600# m3_1638_1560# sky130_fd_pr__cap_mim_m3_1 l=2 w=2
X5 c1_n346_n560# m3_n386_n600# sky130_fd_pr__cap_mim_m3_1 l=2 w=2
X6 c1_1678_n560# m3_1638_n600# sky130_fd_pr__cap_mim_m3_1 l=2 w=2
X7 c1_n1358_160# m3_n1398_120# sky130_fd_pr__cap_mim_m3_1 l=2 w=2
X8 c1_n346_n1280# m3_n386_n1320# sky130_fd_pr__cap_mim_m3_1 l=2 w=2
X9 c1_n2370_160# m3_n2410_120# sky130_fd_pr__cap_mim_m3_1 l=2 w=2
X10 c1_n1358_880# m3_n1398_840# sky130_fd_pr__cap_mim_m3_1 l=2 w=2
X11 c1_n346_n2000# m3_n386_n2040# sky130_fd_pr__cap_mim_m3_1 l=2 w=2
X12 c1_n3382_1600# m3_n3422_1560# sky130_fd_pr__cap_mim_m3_1 l=2 w=2
X13 c1_n1358_1600# m3_n1398_1560# sky130_fd_pr__cap_mim_m3_1 l=2 w=2
X14 c1_n346_160# m3_n386_120# sky130_fd_pr__cap_mim_m3_1 l=2 w=2
X15 c1_n1358_n560# m3_n1398_n600# sky130_fd_pr__cap_mim_m3_1 l=2 w=2
X16 c1_n3382_n1280# m3_n3422_n1320# sky130_fd_pr__cap_mim_m3_1 l=2 w=2
X17 c1_n2370_880# m3_n2410_840# sky130_fd_pr__cap_mim_m3_1 l=2 w=2
X18 c1_n3382_n560# m3_n3422_n600# sky130_fd_pr__cap_mim_m3_1 l=2 w=2
X19 c1_n2370_n1280# m3_n2410_n1320# sky130_fd_pr__cap_mim_m3_1 l=2 w=2
X20 c1_n2370_1600# m3_n2410_1560# sky130_fd_pr__cap_mim_m3_1 l=2 w=2
X21 c1_n346_880# m3_n386_840# sky130_fd_pr__cap_mim_m3_1 l=2 w=2
X22 c1_n2370_n560# m3_n2410_n600# sky130_fd_pr__cap_mim_m3_1 l=2 w=2
X23 c1_666_n1280# m3_626_n1320# sky130_fd_pr__cap_mim_m3_1 l=2 w=2
X24 c1_n3382_n2000# m3_n3422_n2040# sky130_fd_pr__cap_mim_m3_1 l=2 w=2
X25 c1_n2370_n2000# m3_n2410_n2040# sky130_fd_pr__cap_mim_m3_1 l=2 w=2
X26 c1_n3382_160# m3_n3422_120# sky130_fd_pr__cap_mim_m3_1 l=2 w=2
X27 c1_1678_160# m3_1638_120# sky130_fd_pr__cap_mim_m3_1 l=2 w=2
X28 c1_666_n2000# m3_626_n2040# sky130_fd_pr__cap_mim_m3_1 l=2 w=2
X29 c1_1678_880# m3_1638_840# sky130_fd_pr__cap_mim_m3_1 l=2 w=2
X30 c1_n3382_880# m3_n3422_840# sky130_fd_pr__cap_mim_m3_1 l=2 w=2
X31 c1_n1358_n1280# m3_n1398_n1320# sky130_fd_pr__cap_mim_m3_1 l=2 w=2
X32 c1_666_160# m3_626_120# sky130_fd_pr__cap_mim_m3_1 l=2 w=2
X33 c1_2690_n1280# m3_2650_n1320# sky130_fd_pr__cap_mim_m3_1 l=2 w=2
X34 c1_1678_n1280# m3_1638_n1320# sky130_fd_pr__cap_mim_m3_1 l=2 w=2
X35 c1_n1358_n2000# m3_n1398_n2040# sky130_fd_pr__cap_mim_m3_1 l=2 w=2
X36 c1_2690_160# m3_2650_120# sky130_fd_pr__cap_mim_m3_1 l=2 w=2
X37 c1_666_880# m3_626_840# sky130_fd_pr__cap_mim_m3_1 l=2 w=2
X38 c1_2690_1600# m3_2650_1560# sky130_fd_pr__cap_mim_m3_1 l=2 w=2
X39 c1_2690_n2000# m3_2650_n2040# sky130_fd_pr__cap_mim_m3_1 l=2 w=2
X40 c1_2690_n560# m3_2650_n600# sky130_fd_pr__cap_mim_m3_1 l=2 w=2
X41 c1_1678_n2000# m3_1638_n2040# sky130_fd_pr__cap_mim_m3_1 l=2 w=2
.ends

.subckt opa_cap_cell m4_4863_n2668# m4_5875_n2668# m4_6887_n2668# m3_3319_n2356# m4_2839_n2668#
+ m4_3851_n2668# m3_2838_164#
Xsky130_fd_pr__cap_mim_m3_1_UWHR8Z_0 m3_2838_164# m3_2838_164# m4_2839_n2668# m3_2838_164#
+ m3_3319_n2356# m3_3319_n2356# m3_2838_164# m4_2839_n2668# m3_2838_164# m4_4863_n2668#
+ m3_2838_164# m4_4863_n2668# m3_2838_164# m4_6887_n2668# m3_2838_164# m4_5875_n2668#
+ m4_3851_n2668# m3_3319_n2356# m3_3319_n2356# m4_5875_n2668# m3_3319_n2356# m3_2838_164#
+ m3_2838_164# m3_2838_164# m3_2838_164# m3_2838_164# m4_5875_n2668# m3_3319_n2356#
+ m3_3319_n2356# m4_3851_n2668# m4_2839_n2668# m3_3319_n2356# m3_2838_164# m3_2838_164#
+ m4_4863_n2668# m4_6887_n2668# m3_2838_164# m3_2838_164# m3_2838_164# m3_2838_164#
+ m3_3319_n2356# m3_3319_n2356# m4_3851_n2668# m3_2838_164# m3_2838_164# m3_2838_164#
+ m3_3319_n2356# m3_2838_164# m3_3319_n2356# m3_2838_164# m3_2838_164# m3_2838_164#
+ m3_2838_164# m4_3851_n2668# m4_6887_n2668# m3_2838_164# m3_2838_164# m3_2838_164#
+ m3_3319_n2356# m3_2838_164# m3_3319_n2356# m3_3319_n2356# m3_3319_n2356# m3_2838_164#
+ m4_4863_n2668# m3_2838_164# m3_2838_164# m3_2838_164# m4_2839_n2668# m3_2838_164#
+ m3_2838_164# m3_3319_n2356# m3_3319_n2356# m3_2838_164# m3_2838_164# m3_2838_164#
+ m3_2838_164# m3_2838_164# m4_6887_n2668# m4_5875_n2668# m3_2838_164# m3_3319_n2356#
+ m3_3319_n2356# m3_2838_164# sky130_fd_pr__cap_mim_m3_1_UWHR8Z
.ends

.subckt opa_cap m3_820_7670# opa_cap_cell_1/m3_2838_164# m3_2268_9110# m3_n3804_8390#
Xopa_cap_cell_0 m3_2268_9110# m3_2268_9110# m3_2268_9110# m3_820_7670# m3_2268_9110#
+ m3_2268_9110# opa_cap_cell_1/m3_2838_164# opa_cap_cell
Xopa_cap_cell_1 m3_n3804_8390# m3_n3804_8390# m3_n3804_8390# m3_820_7670# m3_n3804_8390#
+ m3_n3804_8390# opa_cap_cell_1/m3_2838_164# opa_cap_cell
.ends

.subckt sky130_fd_pr__pfet_g5v0d10v5_XEEY48 a_229_n516# a_29_n542# w_n323_n578# a_n29_n516#
+ a_n229_n542# a_n287_n516#
X0 a_229_n516# a_29_n542# a_n29_n516# w_n323_n578# sky130_fd_pr__pfet_g5v0d10v5 ad=1.392 pd=10.18 as=0.696 ps=5.09 w=4.8 l=1
X1 a_n29_n516# a_n229_n542# a_n287_n516# w_n323_n578# sky130_fd_pr__pfet_g5v0d10v5 ad=0.696 pd=5.09 as=1.392 ps=10.18 w=4.8 l=1
.ends

.subckt fcm_bias_pcell_2 li_n175_n29# m1_218_1060# a_n188_n29# m1_n198_n29# m1_n9_n29#
+ sky130_fd_pr__pfet_g5v0d10v5_XEEY48_0/w_n323_n578#
Xsky130_fd_pr__pfet_g5v0d10v5_XEEY48_0 m1_n9_n29# m1_n9_n29# sky130_fd_pr__pfet_g5v0d10v5_XEEY48_0/w_n323_n578#
+ m1_218_1060# m1_218_1060# m1_n198_n29# sky130_fd_pr__pfet_g5v0d10v5_XEEY48
.ends

.subckt fcm_bias_pcell VB1 w_155_n1155#
Xfcm_bias_pcell_2_1 w_155_n1155# m1_645_0# w_155_n1155# w_155_n1155# VB1 w_155_n1155#
+ fcm_bias_pcell_2
Xfcm_bias_pcell_2_0 w_155_n1155# m1_645_0# w_155_n1155# w_155_n1155# VB1 w_155_n1155#
+ fcm_bias_pcell_2
.ends

.subckt sky130_fd_pr__nfet_g5v0d10v5_UKZDTQ a_n100_n117# a_100_n91# a_n158_n91# VSUBS
X0 a_100_n91# a_n100_n117# a_n158_n91# VSUBS sky130_fd_pr__nfet_g5v0d10v5 ad=0.174 pd=1.78 as=0.174 ps=1.78 w=0.6 l=1
.ends

.subckt sky130_fd_pr__nfet_g5v0d10v5_QBWG6Y a_n2058_n91# a_n2000_n117# a_2000_n91#
+ VSUBS
X0 a_2000_n91# a_n2000_n117# a_n2058_n91# VSUBS sky130_fd_pr__nfet_g5v0d10v5 ad=0.174 pd=1.78 as=0.174 ps=1.78 w=0.6 l=20
.ends

.subckt cm_ncell3_2 m1_7247_190# sky130_fd_pr__nfet_g5v0d10v5_QBWG6Y_1/a_n2058_n91#
+ sky130_fd_pr__nfet_g5v0d10v5_UKZDTQ_1/VSUBS m1_n502_n60# li_n489_n60# sky130_fd_pr__nfet_g5v0d10v5_QBWG6Y_0/a_2000_n91#
+ m1_4078_58#
Xsky130_fd_pr__nfet_g5v0d10v5_UKZDTQ_0 m1_n502_n60# m1_n502_n60# m1_n502_n60# sky130_fd_pr__nfet_g5v0d10v5_UKZDTQ_1/VSUBS
+ sky130_fd_pr__nfet_g5v0d10v5_UKZDTQ
Xsky130_fd_pr__nfet_g5v0d10v5_UKZDTQ_1 m1_n502_n60# m1_n502_n60# m1_n502_n60# sky130_fd_pr__nfet_g5v0d10v5_UKZDTQ_1/VSUBS
+ sky130_fd_pr__nfet_g5v0d10v5_UKZDTQ
Xsky130_fd_pr__nfet_g5v0d10v5_QBWG6Y_0 m1_4078_58# m1_7247_190# sky130_fd_pr__nfet_g5v0d10v5_QBWG6Y_0/a_2000_n91#
+ sky130_fd_pr__nfet_g5v0d10v5_UKZDTQ_1/VSUBS sky130_fd_pr__nfet_g5v0d10v5_QBWG6Y
Xsky130_fd_pr__nfet_g5v0d10v5_QBWG6Y_1 sky130_fd_pr__nfet_g5v0d10v5_QBWG6Y_1/a_n2058_n91#
+ m1_7247_190# m1_4078_58# sky130_fd_pr__nfet_g5v0d10v5_UKZDTQ_1/VSUBS sky130_fd_pr__nfet_g5v0d10v5_QBWG6Y
.ends

.subckt cm_ncell3 VTAIL1 VTAIL2 DRAIN GNDA
Xcm_ncell3_2_0 DRAIN VTAIL1 GNDA GNDA GNDA DRAIN VTAIL2 cm_ncell3_2
Xcm_ncell3_2_1 DRAIN DRAIN GNDA GNDA GNDA VTAIL1 VTAIL2 cm_ncell3_2
.ends

.subckt sky130_fd_pr__pfet_g5v0d10v5_V8EYZH a_n545_n336# a_n29_n336# a_n229_n362#
+ a_487_n336# a_287_n362# w_n581_n398# a_n287_n336# a_n487_n362# a_229_n336# a_29_n362#
X0 a_229_n336# a_29_n362# a_n29_n336# w_n581_n398# sky130_fd_pr__pfet_g5v0d10v5 ad=0.435 pd=3.29 as=0.435 ps=3.29 w=3 l=1
X1 a_n29_n336# a_n229_n362# a_n287_n336# w_n581_n398# sky130_fd_pr__pfet_g5v0d10v5 ad=0.435 pd=3.29 as=0.435 ps=3.29 w=3 l=1
X2 a_n287_n336# a_n487_n362# a_n545_n336# w_n581_n398# sky130_fd_pr__pfet_g5v0d10v5 ad=0.435 pd=3.29 as=0.87 ps=6.58 w=3 l=1
X3 a_487_n336# a_287_n362# a_229_n336# w_n581_n398# sky130_fd_pr__pfet_g5v0d10v5 ad=0.87 pd=6.58 as=0.435 ps=3.29 w=3 l=1
.ends

.subckt dp_pmos_4 li_n476_79# sky130_fd_pr__pfet_g5v0d10v5_V8EYZH_0/a_n545_n336# m1_n51_765#
+ m1_207_705# m1_n303_79# m1_n391_79# a_n489_79# sky130_fd_pr__pfet_g5v0d10v5_V8EYZH_0/a_n29_n336#
+ sky130_fd_pr__pfet_g5v0d10v5_V8EYZH_0/a_487_n336# sky130_fd_pr__pfet_g5v0d10v5_V8EYZH_0/w_n581_n398#
+ m1_117_161#
Xsky130_fd_pr__pfet_g5v0d10v5_V8EYZH_0 sky130_fd_pr__pfet_g5v0d10v5_V8EYZH_0/a_n545_n336#
+ sky130_fd_pr__pfet_g5v0d10v5_V8EYZH_0/a_n29_n336# m1_207_705# sky130_fd_pr__pfet_g5v0d10v5_V8EYZH_0/a_487_n336#
+ m1_n51_765# sky130_fd_pr__pfet_g5v0d10v5_V8EYZH_0/w_n581_n398# m1_117_161# m1_n51_765#
+ m1_117_161# m1_207_705# sky130_fd_pr__pfet_g5v0d10v5_V8EYZH
.ends

.subckt dp_pmos I_OPA I_OPB I_HEAD N_IN P_IN VPB
Xdp_pmos_4_0 VPB I_OPA P_IN N_IN N_IN P_IN VPB I_OPB I_OPA VPB I_HEAD dp_pmos_4
Xdp_pmos_4_1 VPB I_OPB N_IN P_IN N_IN P_IN VPB I_OPA I_OPB VPB I_HEAD dp_pmos_4
.ends

.subckt dp_pmos_top dp_pmos_3/P_IN dp_pmos_1/I_HEAD dp_pmos_0/P_IN dp_pmos_2/I_HEAD
+ dp_pmos_1/P_IN dp_pmos_5/I_OPB dp_pmos_5/I_OPA dp_pmos_5/P_IN dp_pmos_5/I_HEAD dp_pmos_5/N_IN
+ dp_pmos_5/VPB dp_pmos_0/I_HEAD dp_pmos_2/P_IN dp_pmos_3/I_HEAD
Xdp_pmos_0 dp_pmos_5/I_OPA dp_pmos_5/I_OPB dp_pmos_0/I_HEAD dp_pmos_5/N_IN dp_pmos_0/P_IN
+ dp_pmos_5/VPB dp_pmos
Xdp_pmos_1 dp_pmos_5/I_OPA dp_pmos_5/I_OPB dp_pmos_1/I_HEAD dp_pmos_5/N_IN dp_pmos_1/P_IN
+ dp_pmos_5/VPB dp_pmos
Xdp_pmos_2 dp_pmos_5/I_OPA dp_pmos_5/I_OPB dp_pmos_2/I_HEAD dp_pmos_5/N_IN dp_pmos_2/P_IN
+ dp_pmos_5/VPB dp_pmos
Xdp_pmos_3 dp_pmos_5/I_OPA dp_pmos_5/I_OPB dp_pmos_3/I_HEAD dp_pmos_5/N_IN dp_pmos_3/P_IN
+ dp_pmos_5/VPB dp_pmos
Xdp_pmos_5 dp_pmos_5/I_OPA dp_pmos_5/I_OPB dp_pmos_5/I_HEAD dp_pmos_5/N_IN dp_pmos_5/P_IN
+ dp_pmos_5/VPB dp_pmos
.ends

.subckt sky130_fd_pr__nfet_g5v0d10v5_DJNVTV a_n287_n131# a_29_n157# a_229_n131# a_n545_n131#
+ a_n229_n157# a_287_n157# a_487_n131# a_n29_n131# a_n487_n157# VSUBS
X0 a_n29_n131# a_n229_n157# a_n287_n131# VSUBS sky130_fd_pr__nfet_g5v0d10v5 ad=0.145 pd=1.29 as=0.145 ps=1.29 w=1 l=1
X1 a_229_n131# a_29_n157# a_n29_n131# VSUBS sky130_fd_pr__nfet_g5v0d10v5 ad=0.145 pd=1.29 as=0.145 ps=1.29 w=1 l=1
X2 a_n287_n131# a_n487_n157# a_n545_n131# VSUBS sky130_fd_pr__nfet_g5v0d10v5 ad=0.145 pd=1.29 as=0.29 ps=2.58 w=1 l=1
X3 a_487_n131# a_287_n157# a_229_n131# VSUBS sky130_fd_pr__nfet_g5v0d10v5 ad=0.29 pd=2.58 as=0.145 ps=1.29 w=1 l=1
.ends

.subckt dp_nmos_4 li_n476_369# m1_n51_765# m1_n391_369# sky130_fd_pr__nfet_g5v0d10v5_DJNVTV_0/VSUBS
+ m1_207_705# sky130_fd_pr__nfet_g5v0d10v5_DJNVTV_0/a_n29_n131# sky130_fd_pr__nfet_g5v0d10v5_DJNVTV_0/a_487_n131#
+ m1_n303_369# m1_117_531# sky130_fd_pr__nfet_g5v0d10v5_DJNVTV_0/a_n545_n131#
Xsky130_fd_pr__nfet_g5v0d10v5_DJNVTV_0 m1_117_531# m1_207_705# m1_117_531# sky130_fd_pr__nfet_g5v0d10v5_DJNVTV_0/a_n545_n131#
+ m1_207_705# m1_n51_765# sky130_fd_pr__nfet_g5v0d10v5_DJNVTV_0/a_487_n131# sky130_fd_pr__nfet_g5v0d10v5_DJNVTV_0/a_n29_n131#
+ m1_n51_765# sky130_fd_pr__nfet_g5v0d10v5_DJNVTV_0/VSUBS sky130_fd_pr__nfet_g5v0d10v5_DJNVTV
.ends

.subckt dp_nmos I_ONA m2_865_n317# m1_99_335# m1_187_247# I_ONB cross_pair_1/VSUBS
+ a_74_n664#
Xdp_nmos_4_0 cross_pair_1/VSUBS m1_99_335# m1_99_335# cross_pair_1/VSUBS m1_187_247#
+ I_ONB I_ONA m1_187_247# m2_865_n317# I_ONA dp_nmos_4
Xdp_nmos_4_1 cross_pair_1/VSUBS m1_187_247# m1_99_335# cross_pair_1/VSUBS m1_99_335#
+ I_ONA I_ONB m1_187_247# m2_865_n317# I_ONB dp_nmos_4
.ends

.subckt dp_nmos_top dp_nmos_0/m1_99_335# dp_nmos_5/a_74_n664# dp_nmos_5/m2_865_n317#
+ dp_nmos_0/m2_865_n317# dp_nmos_5/I_ONB dp_nmos_1/m1_99_335# dp_nmos_5/I_ONA dp_nmos_5/m1_99_335#
+ dp_nmos_3/m2_865_n317# dp_nmos_2/m1_99_335# m2_8314_956# dp_nmos_0/a_74_n664# dp_nmos_1/a_74_n664#
+ dp_nmos_2/m2_865_n317# dp_nmos_2/a_74_n664# dp_nmos_3/a_74_n664# dp_nmos_3/m1_99_335#
+ VSUBS dp_nmos_1/m2_865_n317#
Xdp_nmos_0 dp_nmos_5/I_ONA dp_nmos_0/m2_865_n317# dp_nmos_0/m1_99_335# m2_8314_956#
+ dp_nmos_5/I_ONB VSUBS dp_nmos_0/a_74_n664# dp_nmos
Xdp_nmos_1 dp_nmos_5/I_ONA dp_nmos_1/m2_865_n317# dp_nmos_1/m1_99_335# m2_8314_956#
+ dp_nmos_5/I_ONB VSUBS dp_nmos_1/a_74_n664# dp_nmos
Xdp_nmos_2 dp_nmos_5/I_ONA dp_nmos_2/m2_865_n317# dp_nmos_2/m1_99_335# m2_8314_956#
+ dp_nmos_5/I_ONB VSUBS dp_nmos_2/a_74_n664# dp_nmos
Xdp_nmos_3 dp_nmos_5/I_ONA dp_nmos_3/m2_865_n317# dp_nmos_3/m1_99_335# m2_8314_956#
+ dp_nmos_5/I_ONB VSUBS dp_nmos_3/a_74_n664# dp_nmos
Xdp_nmos_5 dp_nmos_5/I_ONA dp_nmos_5/m2_865_n317# dp_nmos_5/m1_99_335# m2_8314_956#
+ dp_nmos_5/I_ONB VSUBS dp_nmos_5/a_74_n664# dp_nmos
.ends

.subckt opa_diffpairs dp_pmos_top_0/dp_pmos_5/I_OPB dp_pmos_top_0/dp_pmos_5/I_OPA
+ dp_pmos_top_0/dp_pmos_5/I_HEAD dp_pmos_top_0/dp_pmos_0/P_IN dp_nmos_top_0/dp_nmos_0/m2_865_n317#
+ dp_nmos_top_0/dp_nmos_5/m2_865_n317# dp_nmos_top_0/dp_nmos_0/a_74_n664# dp_nmos_top_0/dp_nmos_5/I_ONB
+ dp_nmos_top_0/dp_nmos_1/a_74_n664# dp_nmos_top_0/dp_nmos_5/I_ONA dp_pmos_top_0/dp_pmos_0/I_HEAD
+ dp_pmos_top_0/dp_pmos_3/P_IN dp_pmos_top_0/dp_pmos_5/N_IN dp_nmos_top_0/dp_nmos_2/a_74_n664#
+ dp_pmos_top_0/dp_pmos_3/I_HEAD dp_nmos_top_0/dp_nmos_3/a_74_n664# dp_nmos_top_0/dp_nmos_3/m2_865_n317#
+ dp_nmos_top_0/dp_nmos_5/a_74_n664# dp_pmos_top_0/dp_pmos_1/I_HEAD dp_pmos_top_0/dp_pmos_1/P_IN
+ dp_nmos_top_0/dp_nmos_2/m2_865_n317# dp_pmos_top_0/dp_pmos_5/P_IN dp_pmos_top_0/dp_pmos_2/P_IN
+ dp_nmos_top_0/dp_nmos_1/m2_865_n317# dp_pmos_top_0/dp_pmos_5/VPB VSUBS dp_pmos_top_0/dp_pmos_2/I_HEAD
Xdp_pmos_top_0 dp_pmos_top_0/dp_pmos_3/P_IN dp_pmos_top_0/dp_pmos_1/I_HEAD dp_pmos_top_0/dp_pmos_0/P_IN
+ dp_pmos_top_0/dp_pmos_2/I_HEAD dp_pmos_top_0/dp_pmos_1/P_IN dp_pmos_top_0/dp_pmos_5/I_OPB
+ dp_pmos_top_0/dp_pmos_5/I_OPA dp_pmos_top_0/dp_pmos_5/P_IN dp_pmos_top_0/dp_pmos_5/I_HEAD
+ dp_pmos_top_0/dp_pmos_5/N_IN dp_pmos_top_0/dp_pmos_5/VPB dp_pmos_top_0/dp_pmos_0/I_HEAD
+ dp_pmos_top_0/dp_pmos_2/P_IN dp_pmos_top_0/dp_pmos_3/I_HEAD dp_pmos_top
Xdp_nmos_top_0 dp_pmos_top_0/dp_pmos_0/P_IN dp_nmos_top_0/dp_nmos_5/a_74_n664# dp_nmos_top_0/dp_nmos_5/m2_865_n317#
+ dp_nmos_top_0/dp_nmos_0/m2_865_n317# dp_nmos_top_0/dp_nmos_5/I_ONB dp_pmos_top_0/dp_pmos_1/P_IN
+ dp_nmos_top_0/dp_nmos_5/I_ONA dp_pmos_top_0/dp_pmos_5/P_IN dp_nmos_top_0/dp_nmos_3/m2_865_n317#
+ dp_pmos_top_0/dp_pmos_2/P_IN dp_pmos_top_0/dp_pmos_5/N_IN dp_nmos_top_0/dp_nmos_0/a_74_n664#
+ dp_nmos_top_0/dp_nmos_1/a_74_n664# dp_nmos_top_0/dp_nmos_2/m2_865_n317# dp_nmos_top_0/dp_nmos_2/a_74_n664#
+ dp_nmos_top_0/dp_nmos_3/a_74_n664# dp_pmos_top_0/dp_pmos_3/P_IN VSUBS dp_nmos_top_0/dp_nmos_1/m2_865_n317#
+ dp_nmos_top
.ends

.subckt sky130_fd_pr__nfet_g5v0d10v5_QKV39N a_n100_n117# a_100_n91# a_n158_n91# VSUBS
X0 a_100_n91# a_n100_n117# a_n158_n91# VSUBS sky130_fd_pr__nfet_g5v0d10v5 ad=0.174 pd=1.78 as=0.174 ps=1.78 w=0.6 l=1
.ends

.subckt cm_ncell_1 sky130_fd_pr__nfet_g5v0d10v5_QKV39N_0/a_n158_n91# sky130_fd_pr__nfet_g5v0d10v5_QKV39N_0/a_100_n91#
+ m1_69_157# VSUBS
Xsky130_fd_pr__nfet_g5v0d10v5_QKV39N_0 m1_69_157# sky130_fd_pr__nfet_g5v0d10v5_QKV39N_0/a_100_n91#
+ sky130_fd_pr__nfet_g5v0d10v5_QKV39N_0/a_n158_n91# VSUBS sky130_fd_pr__nfet_g5v0d10v5_QKV39N
.ends

.subckt cm_ncell_2 cm_ncell_1_0/sky130_fd_pr__nfet_g5v0d10v5_QKV39N_0/a_100_n91# cm_ncell_1_0/sky130_fd_pr__nfet_g5v0d10v5_QKV39N_0/a_n158_n91#
+ cm_ncell_1_1/sky130_fd_pr__nfet_g5v0d10v5_QKV39N_0/a_100_n91# m2_n34_153# cm_ncell_1_1/sky130_fd_pr__nfet_g5v0d10v5_QKV39N_0/a_n158_n91#
+ VSUBS
Xcm_ncell_1_0 cm_ncell_1_0/sky130_fd_pr__nfet_g5v0d10v5_QKV39N_0/a_n158_n91# cm_ncell_1_0/sky130_fd_pr__nfet_g5v0d10v5_QKV39N_0/a_100_n91#
+ m2_n34_153# VSUBS cm_ncell_1
Xcm_ncell_1_1 cm_ncell_1_1/sky130_fd_pr__nfet_g5v0d10v5_QKV39N_0/a_n158_n91# cm_ncell_1_1/sky130_fd_pr__nfet_g5v0d10v5_QKV39N_0/a_100_n91#
+ m2_n34_153# VSUBS cm_ncell_1
.ends

.subckt cm_ncell_4 cm_ncell_2_0/cm_ncell_1_1/sky130_fd_pr__nfet_g5v0d10v5_QKV39N_0/a_n158_n91#
+ cm_ncell_2_1/cm_ncell_1_1/sky130_fd_pr__nfet_g5v0d10v5_QKV39N_0/a_n158_n91# cm_ncell_2_1/cm_ncell_1_0/sky130_fd_pr__nfet_g5v0d10v5_QKV39N_0/a_100_n91#
+ cm_ncell_2_0/cm_ncell_1_1/sky130_fd_pr__nfet_g5v0d10v5_QKV39N_0/a_100_n91# cm_ncell_2_0/cm_ncell_1_0/sky130_fd_pr__nfet_g5v0d10v5_QKV39N_0/a_n158_n91#
+ cm_ncell_2_1/cm_ncell_1_0/sky130_fd_pr__nfet_g5v0d10v5_QKV39N_0/a_n158_n91# cm_ncell_2_0/cm_ncell_1_0/sky130_fd_pr__nfet_g5v0d10v5_QKV39N_0/a_100_n91#
+ cm_ncell_2_1/m2_n34_153# cm_ncell_2_1/cm_ncell_1_1/sky130_fd_pr__nfet_g5v0d10v5_QKV39N_0/a_100_n91#
+ VSUBS
Xcm_ncell_2_0 cm_ncell_2_0/cm_ncell_1_0/sky130_fd_pr__nfet_g5v0d10v5_QKV39N_0/a_100_n91#
+ cm_ncell_2_0/cm_ncell_1_0/sky130_fd_pr__nfet_g5v0d10v5_QKV39N_0/a_n158_n91# cm_ncell_2_0/cm_ncell_1_1/sky130_fd_pr__nfet_g5v0d10v5_QKV39N_0/a_100_n91#
+ cm_ncell_2_1/m2_n34_153# cm_ncell_2_0/cm_ncell_1_1/sky130_fd_pr__nfet_g5v0d10v5_QKV39N_0/a_n158_n91#
+ VSUBS cm_ncell_2
Xcm_ncell_2_1 cm_ncell_2_1/cm_ncell_1_0/sky130_fd_pr__nfet_g5v0d10v5_QKV39N_0/a_100_n91#
+ cm_ncell_2_1/cm_ncell_1_0/sky130_fd_pr__nfet_g5v0d10v5_QKV39N_0/a_n158_n91# cm_ncell_2_1/cm_ncell_1_1/sky130_fd_pr__nfet_g5v0d10v5_QKV39N_0/a_100_n91#
+ cm_ncell_2_1/m2_n34_153# cm_ncell_2_1/cm_ncell_1_1/sky130_fd_pr__nfet_g5v0d10v5_QKV39N_0/a_n158_n91#
+ VSUBS cm_ncell_2
.ends

.subckt cm_ncell1_4 li_n11_506# cm_ncell_4_0/cm_ncell_2_1/cm_ncell_1_1/sky130_fd_pr__nfet_g5v0d10v5_QKV39N_0/a_n158_n91#
+ m1_n11_483# cm_ncell_4_0/cm_ncell_2_1/cm_ncell_1_0/sky130_fd_pr__nfet_g5v0d10v5_QKV39N_0/a_100_n91#
+ cm_ncell_4_0/cm_ncell_2_0/cm_ncell_1_1/sky130_fd_pr__nfet_g5v0d10v5_QKV39N_0/a_100_n91#
+ cm_ncell_4_0/VSUBS cm_ncell_4_0/cm_ncell_2_1/cm_ncell_1_0/sky130_fd_pr__nfet_g5v0d10v5_QKV39N_0/a_n158_n91#
+ cm_ncell_4_0/cm_ncell_2_0/cm_ncell_1_0/sky130_fd_pr__nfet_g5v0d10v5_QKV39N_0/a_n158_n91#
+ cm_ncell_4_0/cm_ncell_2_0/cm_ncell_1_0/sky130_fd_pr__nfet_g5v0d10v5_QKV39N_0/a_100_n91#
+ cm_ncell_4_0/cm_ncell_2_1/m2_n34_153# cm_ncell_4_0/cm_ncell_2_1/cm_ncell_1_1/sky130_fd_pr__nfet_g5v0d10v5_QKV39N_0/a_100_n91#
+ cm_ncell_4_0/cm_ncell_2_0/cm_ncell_1_1/sky130_fd_pr__nfet_g5v0d10v5_QKV39N_0/a_n158_n91#
Xcm_ncell_4_0 cm_ncell_4_0/cm_ncell_2_0/cm_ncell_1_1/sky130_fd_pr__nfet_g5v0d10v5_QKV39N_0/a_n158_n91#
+ cm_ncell_4_0/cm_ncell_2_1/cm_ncell_1_1/sky130_fd_pr__nfet_g5v0d10v5_QKV39N_0/a_n158_n91#
+ cm_ncell_4_0/cm_ncell_2_1/cm_ncell_1_0/sky130_fd_pr__nfet_g5v0d10v5_QKV39N_0/a_100_n91#
+ cm_ncell_4_0/cm_ncell_2_0/cm_ncell_1_1/sky130_fd_pr__nfet_g5v0d10v5_QKV39N_0/a_100_n91#
+ cm_ncell_4_0/cm_ncell_2_0/cm_ncell_1_0/sky130_fd_pr__nfet_g5v0d10v5_QKV39N_0/a_n158_n91#
+ cm_ncell_4_0/cm_ncell_2_1/cm_ncell_1_0/sky130_fd_pr__nfet_g5v0d10v5_QKV39N_0/a_n158_n91#
+ cm_ncell_4_0/cm_ncell_2_0/cm_ncell_1_0/sky130_fd_pr__nfet_g5v0d10v5_QKV39N_0/a_100_n91#
+ cm_ncell_4_0/cm_ncell_2_1/m2_n34_153# cm_ncell_4_0/cm_ncell_2_1/cm_ncell_1_1/sky130_fd_pr__nfet_g5v0d10v5_QKV39N_0/a_100_n91#
+ cm_ncell_4_0/VSUBS cm_ncell_4
.ends

.subckt cm_ncell1_4_2 m1_654_n200# cm_ncell1_4_1/cm_ncell_4_0/cm_ncell_2_0/cm_ncell_1_0/sky130_fd_pr__nfet_g5v0d10v5_QKV39N_0/a_n158_n91#
+ cm_ncell1_4_1/li_n11_506# cm_ncell1_4_0/li_n11_506# m1_1030_24# m1_278_24# cm_ncell1_4_1/cm_ncell_4_0/cm_ncell_2_1/m2_n34_153#
+ m1_1406_24# m1_n98_24# cm_ncell1_4_0/cm_ncell_4_0/cm_ncell_2_1/m2_n34_153# m1_278_n482#
+ m1_1406_n200# VSUBS
Xcm_ncell1_4_0 cm_ncell1_4_0/li_n11_506# m1_1030_24# m1_n98_24# m1_1030_24# m1_n98_24#
+ VSUBS m1_n98_24# m1_n98_24# m1_278_24# cm_ncell1_4_0/cm_ncell_4_0/cm_ncell_2_1/m2_n34_153#
+ m1_1406_24# m1_278_24# cm_ncell1_4
Xcm_ncell1_4_1 cm_ncell1_4_1/li_n11_506# m1_278_n482# m1_278_n482# m1_278_n482# m1_654_n200#
+ VSUBS m1_654_n200# cm_ncell1_4_1/cm_ncell_4_0/cm_ncell_2_0/cm_ncell_1_0/sky130_fd_pr__nfet_g5v0d10v5_QKV39N_0/a_n158_n91#
+ m1_278_n482# cm_ncell1_4_1/cm_ncell_4_0/cm_ncell_2_1/m2_n34_153# m1_1406_n200# m1_278_n482#
+ cm_ncell1_4
.ends

.subckt cm_ncell1_6_2 cm_ncell_1_0/sky130_fd_pr__nfet_g5v0d10v5_QKV39N_0/a_100_n91#
+ m1_1030_24# m2_n16_n278# m1_n98_24# li_n16_n539# m1_278_24# cm_ncell_1_2/VSUBS cm_ncell1_4_0/cm_ncell_4_0/cm_ncell_2_1/m2_n34_153#
+ m1_654_n200#
Xcm_ncell1_4_0 li_n16_n539# m1_1030_24# m1_n98_24# m1_1030_24# m1_n98_24# cm_ncell_1_2/VSUBS
+ m1_n98_24# m1_n98_24# m1_278_24# cm_ncell1_4_0/cm_ncell_4_0/cm_ncell_2_1/m2_n34_153#
+ m1_n98_24# m1_278_24# cm_ncell1_4
Xsky130_fd_pr__nfet_g5v0d10v5_QKV39N_3 m1_n98_24# m1_n98_24# m1_n98_24# cm_ncell_1_2/VSUBS
+ sky130_fd_pr__nfet_g5v0d10v5_QKV39N
Xcm_ncell_1_0 m1_n98_24# cm_ncell_1_0/sky130_fd_pr__nfet_g5v0d10v5_QKV39N_0/a_100_n91#
+ m2_n16_n278# cm_ncell_1_2/VSUBS cm_ncell_1
Xcm_ncell_1_1 m1_654_n200# m1_n98_24# m2_n16_n278# cm_ncell_1_2/VSUBS cm_ncell_1
Xcm_ncell_1_2 m1_n98_24# m1_654_n200# m2_n16_n278# cm_ncell_1_2/VSUBS cm_ncell_1
Xsky130_fd_pr__nfet_g5v0d10v5_QKV39N_0 m1_n98_24# m1_n98_24# m1_n98_24# cm_ncell_1_2/VSUBS
+ sky130_fd_pr__nfet_g5v0d10v5_QKV39N
Xsky130_fd_pr__nfet_g5v0d10v5_QKV39N_1 m1_n98_24# m1_n98_24# m1_n98_24# cm_ncell_1_2/VSUBS
+ sky130_fd_pr__nfet_g5v0d10v5_QKV39N
.ends

.subckt cm_ncell1_cell cm_ncell1_4_2_0/cm_ncell1_4_1/cm_ncell_4_0/cm_ncell_2_0/cm_ncell_1_0/sky130_fd_pr__nfet_g5v0d10v5_QKV39N_0/a_n158_n91#
+ cm_ncell1_4_2_0/m1_1406_n200# cm_ncell1_4_2_1/li_n16_n539# cm_ncell1_4_2_0/m1_1030_24#
+ cm_ncell1_4_2_1/m1_1030_24# cm_ncell1_4_2_0/m1_278_24# cm_ncell1_4_2_1/m1_654_n200#
+ cm_ncell1_4_2_1/m1_278_24# cm_ncell1_4_2_1/m2_n16_n278# cm_ncell1_4_2_1/m1_n98_24#
+ cm_ncell1_4_2_0/m1_654_n200# cm_ncell1_4_2_1/cm_ncell1_4_0/cm_ncell_4_0/cm_ncell_2_1/m2_n34_153#
+ VSUBS
Xcm_ncell1_4_2_0 cm_ncell1_4_2_0/m1_654_n200# cm_ncell1_4_2_0/cm_ncell1_4_1/cm_ncell_4_0/cm_ncell_2_0/cm_ncell_1_0/sky130_fd_pr__nfet_g5v0d10v5_QKV39N_0/a_n158_n91#
+ cm_ncell1_4_2_1/li_n16_n539# cm_ncell1_4_2_1/li_n16_n539# cm_ncell1_4_2_0/m1_1030_24#
+ cm_ncell1_4_2_0/m1_278_24# cm_ncell1_4_2_1/m2_n16_n278# cm_ncell1_4_2_1/m1_n98_24#
+ cm_ncell1_4_2_1/m1_n98_24# cm_ncell1_4_2_1/cm_ncell1_4_0/cm_ncell_4_0/cm_ncell_2_1/m2_n34_153#
+ cm_ncell1_4_2_1/m1_n98_24# cm_ncell1_4_2_0/m1_1406_n200# VSUBS cm_ncell1_4_2
Xcm_ncell1_4_2_1 cm_ncell1_4_2_0/m1_1406_n200# cm_ncell1_4_2_1/m1_1030_24# cm_ncell1_4_2_1/m2_n16_n278#
+ cm_ncell1_4_2_1/m1_n98_24# cm_ncell1_4_2_1/li_n16_n539# cm_ncell1_4_2_1/m1_278_24#
+ VSUBS cm_ncell1_4_2_1/cm_ncell1_4_0/cm_ncell_4_0/cm_ncell_2_1/m2_n34_153# cm_ncell1_4_2_1/m1_654_n200#
+ cm_ncell1_6_2
.ends

.subckt cm_ncell1_left m1_n2595_623# cm_ncell1_cell_0/cm_ncell1_4_2_0/cm_ncell1_4_1/cm_ncell_4_0/cm_ncell_2_0/cm_ncell_1_0/sky130_fd_pr__nfet_g5v0d10v5_QKV39N_0/a_n158_n91#
+ m1_n1473_447# m1_n2219_359# m1_n1091_623# m1_n345_799# m1_n604_409# cm_ncell1_cell_0/cm_ncell1_4_2_1/cm_ncell1_4_0/cm_ncell_4_0/cm_ncell_2_1/m2_n34_153#
+ cm_ncell1_cell_0/cm_ncell1_4_2_1/m2_n16_n278# cm_ncell1_cell_0/cm_ncell1_4_2_1/m1_n98_24#
+ m1_n1849_799# VSUBS cm_ncell1_cell_0/cm_ncell1_4_2_1/li_n16_n539#
Xcm_ncell1_cell_0 cm_ncell1_cell_0/cm_ncell1_4_2_0/cm_ncell1_4_1/cm_ncell_4_0/cm_ncell_2_0/cm_ncell_1_0/sky130_fd_pr__nfet_g5v0d10v5_QKV39N_0/a_n158_n91#
+ m1_n1473_447# cm_ncell1_cell_0/cm_ncell1_4_2_1/li_n16_n539# m1_n1091_623# m1_n2595_623#
+ m1_n345_799# m1_n2219_359# m1_n1849_799# cm_ncell1_cell_0/cm_ncell1_4_2_1/m2_n16_n278#
+ cm_ncell1_cell_0/cm_ncell1_4_2_1/m1_n98_24# m1_n604_409# cm_ncell1_cell_0/cm_ncell1_4_2_1/cm_ncell1_4_0/cm_ncell_4_0/cm_ncell_2_1/m2_n34_153#
+ VSUBS cm_ncell1_cell
.ends

.subckt cm_ncell1_right cm_ncell1_cell_0/cm_ncell1_4_2_0/cm_ncell1_4_1/cm_ncell_4_0/cm_ncell_2_0/cm_ncell_1_0/sky130_fd_pr__nfet_g5v0d10v5_QKV39N_0/a_n158_n91#
+ m1_1535_368# m1_777_456# m1_1911_632# m1_1153_808# m1_2235_428# m1_407_632# cm_ncell1_cell_0/cm_ncell1_4_2_1/cm_ncell1_4_0/cm_ncell_4_0/cm_ncell_2_1/m2_n34_153#
+ cm_ncell1_cell_0/cm_ncell1_4_2_1/m2_n16_n278# VSUBS cm_ncell1_cell_0/cm_ncell1_4_2_1/m1_n98_24#
+ cm_ncell1_cell_0/cm_ncell1_4_2_1/li_n16_n539#
Xcm_ncell1_cell_0 cm_ncell1_cell_0/cm_ncell1_4_2_0/cm_ncell1_4_1/cm_ncell_4_0/cm_ncell_2_0/cm_ncell_1_0/sky130_fd_pr__nfet_g5v0d10v5_QKV39N_0/a_n158_n91#
+ m1_1535_368# cm_ncell1_cell_0/cm_ncell1_4_2_1/li_n16_n539# m1_1153_808# m1_2235_428#
+ m1_407_632# m1_2235_428# m1_1911_632# cm_ncell1_cell_0/cm_ncell1_4_2_1/m2_n16_n278#
+ cm_ncell1_cell_0/cm_ncell1_4_2_1/m1_n98_24# m1_777_456# cm_ncell1_cell_0/cm_ncell1_4_2_1/cm_ncell1_4_0/cm_ncell_4_0/cm_ncell_2_1/m2_n34_153#
+ VSUBS cm_ncell1_cell
.ends

.subckt cm_ncell1_half cm_ncell1_left_0/cm_ncell1_cell_0/cm_ncell1_4_2_0/cm_ncell1_4_1/cm_ncell_4_0/cm_ncell_2_0/cm_ncell_1_0/sky130_fd_pr__nfet_g5v0d10v5_QKV39N_0/a_n158_n91#
+ m2_1582_812# cm_ncell1_right_0/cm_ncell1_cell_0/cm_ncell1_4_2_0/cm_ncell1_4_1/cm_ncell_4_0/cm_ncell_2_0/cm_ncell_1_0/sky130_fd_pr__nfet_g5v0d10v5_QKV39N_0/a_n158_n91#
+ m2_1958_460# m2_2898_548# m2_1206_372# cm_ncell1_left_0/cm_ncell1_cell_0/cm_ncell1_4_2_1/li_n16_n539#
+ m2_830_636# cm_ncell1_left_0/cm_ncell1_cell_0/cm_ncell1_4_2_1/cm_ncell1_4_0/cm_ncell_4_0/cm_ncell_2_1/m2_n34_153#
+ cm_ncell1_left_0/cm_ncell1_cell_0/cm_ncell1_4_2_1/m2_n16_n278# VSUBS cm_ncell1_left_0/cm_ncell1_cell_0/cm_ncell1_4_2_1/m1_n98_24#
Xcm_ncell1_left_0 m2_830_636# cm_ncell1_left_0/cm_ncell1_cell_0/cm_ncell1_4_2_0/cm_ncell1_4_1/cm_ncell_4_0/cm_ncell_2_0/cm_ncell_1_0/sky130_fd_pr__nfet_g5v0d10v5_QKV39N_0/a_n158_n91#
+ m2_1958_460# m2_1206_372# m2_830_636# m2_1582_812# m2_2898_548# cm_ncell1_left_0/cm_ncell1_cell_0/cm_ncell1_4_2_1/cm_ncell1_4_0/cm_ncell_4_0/cm_ncell_2_1/m2_n34_153#
+ cm_ncell1_left_0/cm_ncell1_cell_0/cm_ncell1_4_2_1/m2_n16_n278# cm_ncell1_left_0/cm_ncell1_cell_0/cm_ncell1_4_2_1/m1_n98_24#
+ m2_1582_812# VSUBS cm_ncell1_left_0/cm_ncell1_cell_0/cm_ncell1_4_2_1/li_n16_n539#
+ cm_ncell1_left
Xcm_ncell1_right_0 cm_ncell1_right_0/cm_ncell1_cell_0/cm_ncell1_4_2_0/cm_ncell1_4_1/cm_ncell_4_0/cm_ncell_2_0/cm_ncell_1_0/sky130_fd_pr__nfet_g5v0d10v5_QKV39N_0/a_n158_n91#
+ m2_1206_372# m2_1958_460# m2_830_636# m2_1582_812# m2_1582_812# m2_830_636# cm_ncell1_left_0/cm_ncell1_cell_0/cm_ncell1_4_2_1/cm_ncell1_4_0/cm_ncell_4_0/cm_ncell_2_1/m2_n34_153#
+ cm_ncell1_left_0/cm_ncell1_cell_0/cm_ncell1_4_2_1/m2_n16_n278# VSUBS cm_ncell1_left_0/cm_ncell1_cell_0/cm_ncell1_4_2_1/m1_n98_24#
+ cm_ncell1_left_0/cm_ncell1_cell_0/cm_ncell1_4_2_1/li_n16_n539# cm_ncell1_right
.ends

.subckt cm_ncell1 io0 io1 to0 to1 to2 to3 to4 GND G1 cm_ncell1_half_1/cm_ncell1_left_0/cm_ncell1_cell_0/cm_ncell1_4_2_1/li_n16_n539#
+ VSUBS
Xcm_ncell1_half_0 to0 io0 to1 to3 to2 io1 cm_ncell1_half_1/cm_ncell1_left_0/cm_ncell1_cell_0/cm_ncell1_4_2_1/li_n16_n539#
+ to4 G1 G1 VSUBS GND cm_ncell1_half
Xcm_ncell1_half_1 to0 io0 to1 to3 to2 io1 cm_ncell1_half_1/cm_ncell1_left_0/cm_ncell1_cell_0/cm_ncell1_4_2_1/li_n16_n539#
+ to4 G1 G1 VSUBS GND cm_ncell1_half
.ends

.subckt cm_ncell2_4 cm_ncell_4_0/VSUBS cm_ncell_4_0/cm_ncell_2_1/cm_ncell_1_1/sky130_fd_pr__nfet_g5v0d10v5_QKV39N_0/a_n158_n91#
+ li_n21_617# cm_ncell_4_0/cm_ncell_2_1/cm_ncell_1_0/sky130_fd_pr__nfet_g5v0d10v5_QKV39N_0/a_100_n91#
+ cm_ncell_4_0/cm_ncell_2_0/cm_ncell_1_1/sky130_fd_pr__nfet_g5v0d10v5_QKV39N_0/a_100_n91#
+ m1_n21_594# cm_ncell_4_0/cm_ncell_2_1/cm_ncell_1_0/sky130_fd_pr__nfet_g5v0d10v5_QKV39N_0/a_n158_n91#
+ cm_ncell_4_0/cm_ncell_2_0/cm_ncell_1_0/sky130_fd_pr__nfet_g5v0d10v5_QKV39N_0/a_n158_n91#
+ cm_ncell_4_0/cm_ncell_2_0/cm_ncell_1_0/sky130_fd_pr__nfet_g5v0d10v5_QKV39N_0/a_100_n91#
+ cm_ncell_4_0/cm_ncell_2_1/m2_n34_153# cm_ncell_4_0/cm_ncell_2_1/cm_ncell_1_1/sky130_fd_pr__nfet_g5v0d10v5_QKV39N_0/a_100_n91#
+ cm_ncell_4_0/cm_ncell_2_0/cm_ncell_1_1/sky130_fd_pr__nfet_g5v0d10v5_QKV39N_0/a_n158_n91#
Xcm_ncell_4_0 cm_ncell_4_0/cm_ncell_2_0/cm_ncell_1_1/sky130_fd_pr__nfet_g5v0d10v5_QKV39N_0/a_n158_n91#
+ cm_ncell_4_0/cm_ncell_2_1/cm_ncell_1_1/sky130_fd_pr__nfet_g5v0d10v5_QKV39N_0/a_n158_n91#
+ cm_ncell_4_0/cm_ncell_2_1/cm_ncell_1_0/sky130_fd_pr__nfet_g5v0d10v5_QKV39N_0/a_100_n91#
+ cm_ncell_4_0/cm_ncell_2_0/cm_ncell_1_1/sky130_fd_pr__nfet_g5v0d10v5_QKV39N_0/a_100_n91#
+ cm_ncell_4_0/cm_ncell_2_0/cm_ncell_1_0/sky130_fd_pr__nfet_g5v0d10v5_QKV39N_0/a_n158_n91#
+ cm_ncell_4_0/cm_ncell_2_1/cm_ncell_1_0/sky130_fd_pr__nfet_g5v0d10v5_QKV39N_0/a_n158_n91#
+ cm_ncell_4_0/cm_ncell_2_0/cm_ncell_1_0/sky130_fd_pr__nfet_g5v0d10v5_QKV39N_0/a_100_n91#
+ cm_ncell_4_0/cm_ncell_2_1/m2_n34_153# cm_ncell_4_0/cm_ncell_2_1/cm_ncell_1_1/sky130_fd_pr__nfet_g5v0d10v5_QKV39N_0/a_100_n91#
+ cm_ncell_4_0/VSUBS cm_ncell_4
.ends

.subckt cm_ncell2_5_2 cm_ncell2_4_0/cm_ncell_4_0/cm_ncell_2_1/cm_ncell_1_0/sky130_fd_pr__nfet_g5v0d10v5_QKV39N_0/a_n158_n91#
+ cm_ncell2_4_0/cm_ncell_4_0/cm_ncell_2_0/cm_ncell_1_1/sky130_fd_pr__nfet_g5v0d10v5_QKV39N_0/a_100_n91#
+ cm_ncell_1_2/sky130_fd_pr__nfet_g5v0d10v5_QKV39N_0/a_n158_n91# m1_n98_n376# m1_n16_n914#
+ m1_278_24# m2_n16_n454# li_n16_n891# cm_ncell_1_0/sky130_fd_pr__nfet_g5v0d10v5_QKV39N_0/a_n158_n91#
+ cm_ncell2_4_0/cm_ncell_4_0/cm_ncell_2_1/cm_ncell_1_1/sky130_fd_pr__nfet_g5v0d10v5_QKV39N_0/a_100_n91#
+ cm_ncell_1_1/sky130_fd_pr__nfet_g5v0d10v5_QKV39N_0/a_100_n91# cm_ncell2_4_0/cm_ncell_4_0/cm_ncell_2_1/m2_n34_153#
+ m1_654_n376# cm_ncell_1_2/VSUBS cm_ncell2_4_0/cm_ncell_4_0/cm_ncell_2_0/cm_ncell_1_0/sky130_fd_pr__nfet_g5v0d10v5_QKV39N_0/a_n158_n91#
+ m1_1030_24#