** sch_path: /home/yohanes/10-bit-DAC/xschem/DAC_10b_top.sch
.include ~/pdk/sky130A/libs.ref/sky130_fd_sc_hvl/spice/sky130_fd_sc_hvl.spice
.include ~/pdk/sky130A/libs.ref/sky130_fd_sc_hd/spice/sky130_fd_sc_hd.spice
.subckt DAC_10b_top DIN0 DIN1 DIN2 DIN3 DIN4 DIN5 DIN6 DIN7 DIN8 DIN9 ROUT1 ROUT2 VDD VDDH GND VOUT
*.PININFO VOUT:O GND:I DIN[0..9]:I VDD:I VDDH:I ROUT1:I ROUT2:I
x6 VH2 VL2 b[0] b[1] b[2] b[3] bb[0] bb[1] bb[2] bb[3] VS2[0] VS2[1] VS2[2] VS2[3] GND interpolating_dec_4b
x7 VH3 VL3 b[0] b[1] b[2] bb[0] bb[1] bb[2] VS3[0] VS3[1] VS3[2] VDDH interpolating_dec_3b
x8 VBPLV VBNLV d[6] d[7] d[8] d[9] db[6] db[7] db[8] db[9] VS1 VL2 VS2[0] VS2[1] VS2[2] VS2[3] VL3 VS3[0] VS3[1] VS3[2] VS4
+ P_IN[0] P_IN[1] P_IN[2] P_IN[3] P_IN[4] VDD VDDH GND VDDH GND seg_selector
x9 VBPDEC VBNDEC DS[8] DS[9] DSB[8] DSB[9] dec0[0] dec0[1] dec0[2] dec0[3] VDD VDDH GND decoder_2to4
x10 VBPDEC VBNDEC d[6] d[7] db[6] db[7] dec1[0] dec1[1] dec1[2] dec1[3] VDD VDDH GND decoder_2to4
x11 VBPDEC VBNDEC d[4] d[5] db[4] db[5] dec2[0] dec2[1] dec2[2] dec2[3] VDD VDDH GND decoder_2to4
x12 VBPLV VBNLV d[0] db[0] b[0] bb[0] VDDH GND lvsf_1buff
x13 VBPLV VBNLV d[1] db[1] b[1] bb[1] VDDH GND lvsf_1buff
x14 VBPLV VBNLV d[2] db[2] b[2] bb[2] VDDH GND lvsf_1buff
x15 VBPLV VBNLV d[3] db[3] b[3] bb[3] VDDH GND lvsf_1buff
x17 P_IN[0] P_IN[1] P_IN[2] P_IN[3] P_IN[4] VOUT VOUT ROUT1 VDDH GND op_amp
x16 ROUT2 VBPLV VBNLV VBPDEC VBNDEC VDDH GND bias_lvsf
x18 DIN0 DIN1 DIN2 DIN3 DIN4 DIN5 DIN6 DIN7 DIN8 DIN9 d[0] d[1] d[2] d[3] d[4] d[5] d[6] d[7] d[8] d[9] db[0] db[1] db[2] db[3]
+ db[4] db[5] db[6] db[7] db[8] db[9] VDD GND buffer_bus
x19 VBPLV VBNLV d[4] db[4] b[4] bb[4] VDDH GND lvsf_1buff
x20 VBPLV VBNLV d[5] db[5] b[5] bb[5] VDDH GND lvsf_1buff
x21 VBPLV VBNLV d[6] db[6] b[6] bb[6] VDDH GND lvsf_1buff
x22 dec2[0] dec2[1] dec2[2] dec2[3] dec2b[0] dec2b[1] dec2b[2] dec2b[3] VDDH GND inv_hvl_4o
x23 d[6] d[7] d[8] d[9] db[6] db[7] db[8] DS[8] DS[9] DSB[8] DSB[9] VDD GND logic_shift_seg2
x24 GND VS1_end dec2[0] dec2[1] dec2[2] dec2[3] b[0] b[1] b[2] b[3] bb[0] bb[1] bb[2] bb[3] VS1 GND top_segment_1
x25 VS1_end VS2_end dec0[0] dec0[1] dec0[2] dec1[0] dec1[1] dec1[2] dec1[3] dec2[0] dec2[1] dec2[2] dec2[3] VH2 VL2 GND
+ top_segment_2
x26 VS2_end VS3_end b[3] b[4] b[5] b[6] bb[3] bb[4] bb[5] bb[6] VH3 VL3 GND VDDH top_segment_3
x27 VS3_end VDDH dec2b[0] dec2b[1] dec2b[2] dec2b[3] b[0] b[1] b[2] b[3] bb[0] bb[1] bb[2] bb[3] VS4 GND VDDH top_segment_4
.ends

* expanding   symbol:  interpolating_dec_4b.sym # of pins=6
** sym_path: /home/yohanes/10-bit-DAC/xschem/interpolating_dec_4b.sym
** sch_path: /home/yohanes/10-bit-DAC/xschem/interpolating_dec_4b.sch
.subckt interpolating_dec_4b VH VL b[0] b[1] b[2] b[3] bb[0] bb[1] bb[2] bb[3] vout[0] vout[1] vout[2] vout[3] VNB
*.PININFO vout[0:3]:O VNB:I b[0:3]:I VH:I VL:I bb[0:3]:I
.param wp=0.42 wn=0.42 l=0.5

XM1 vout[0] b[0] VH VNB sky130_fd_pr__nfet_g5v0d10v5 L=l W=wn nf=1 m=1
XM2 vout[1] b[1] VH VNB sky130_fd_pr__nfet_g5v0d10v5 L=l W=wn nf=1 m=1
XM3 vout[2] b[2] VH VNB sky130_fd_pr__nfet_g5v0d10v5 L=l W=wn nf=1 m=1
XM4 vout[3] b[3] VH VNB sky130_fd_pr__nfet_g5v0d10v5 L=l W=wn nf=1 m=1
XM5 vout[0] bb[0] VL VNB sky130_fd_pr__nfet_g5v0d10v5 L=l W=wn nf=1 m=1
XM6 vout[1] bb[1] VL VNB sky130_fd_pr__nfet_g5v0d10v5 L=l W=wn nf=1 m=1
XM7 vout[2] bb[2] VL VNB sky130_fd_pr__nfet_g5v0d10v5 L=l W=wn nf=1 m=1
XM8 vout[3] bb[3] VL VNB sky130_fd_pr__nfet_g5v0d10v5 L=l W=wn nf=1 m=1
.ends


* expanding   symbol:  interpolating_dec_3b.sym # of pins=6
** sym_path: /home/yohanes/10-bit-DAC/xschem/interpolating_dec_3b.sym
** sch_path: /home/yohanes/10-bit-DAC/xschem/interpolating_dec_3b.sch
.subckt interpolating_dec_3b VH VL b[0] b[1] b[2] bb[0] bb[1] bb[2] vout[0] vout[1] vout[2] VPB
*.PININFO vout[0:2]:O b[0:2]:I VPB:I VH:I VL:I bb[0:2]:I
.param wp=0.42 wn=0.42 l=0.5

XM5 vout[0] b[0] VL VPB sky130_fd_pr__pfet_g5v0d10v5 L=l W=wp nf=1 m=1
XM6 vout[1] b[1] VL VPB sky130_fd_pr__pfet_g5v0d10v5 L=l W=wp nf=1 m=1
XM7 vout[2] b[2] VL VPB sky130_fd_pr__pfet_g5v0d10v5 L=l W=wp nf=1 m=1
XM1 vout[0] bb[0] VH VPB sky130_fd_pr__pfet_g5v0d10v5 L=l W=wp nf=1 m=1
XM2 vout[1] bb[1] VH VPB sky130_fd_pr__pfet_g5v0d10v5 L=l W=wp nf=1 m=1
XM3 vout[2] bb[2] VH VPB sky130_fd_pr__pfet_g5v0d10v5 L=l W=wp nf=1 m=1
.ends


* expanding   symbol:  seg_selector.sym # of pins=16
** sym_path: /home/yohanes/10-bit-DAC/xschem/seg_selector.sym
** sch_path: /home/yohanes/10-bit-DAC/xschem/seg_selector.sch
.subckt seg_selector VPBIAS VNBIAS b[6] b[7] b[8] b[9] bb[6] bb[7] bb[8] bb[9] VS1 VS2_VL VS2[0] VS2[1] VS2[2] VS2[3] VS3_VL
+ VS3[0] VS3[1] VS3[2] VS4 vout[0] vout[1] vout[2] vout[3] vout[4] VDD VDDH GND VPB VNB
*.PININFO vout[0:4]:O VNB:I VPB:I b[6:9]:I VS1:I VS2[0:3]:I VS3[0:2]:I VS4:I bb[6:9]:I GND:I VDD:I VPBIAS:I VNBIAS:I VDDH:I
*+ VS2_VL:I VS3_VL:I
x1 SH[1] VS1 vout[0] vout[1] vout[2] vout[3] vout[4] VNB seg_selector_1
x2 SH[2] VS2_VL VS2[0] VS2[1] VS2[2] VS2[3] vout[0] vout[1] vout[2] vout[3] vout[4] VNB seg_selector_2
x3 SH[3] VS3_VL VS3[0] VS3[1] VS3[2] vout[0] vout[1] vout[2] vout[3] vout[4] VPB seg_selector_3
x4 SH[4] VS4 vout[0] vout[1] vout[2] vout[3] vout[4] VPB seg_selector_4
x5 b[6] b[7] b[8] b[9] bb[6] bb[7] bb[8] bb[9] S[1] S[2] S[3] S[4] SB[1] SB[2] SB[3] SB[4] VDD GND seg_selector_logic
x6 VPBIAS VNBIAS S[4] SB[4] net1 VDDH GND lvsf
x7 VPBIAS VNBIAS S[3] SB[3] net2 VDDH GND lvsf
x8 VPBIAS VNBIAS SB[2] S[2] net3 VDDH GND lvsf
x9 VPBIAS VNBIAS SB[1] S[1] net4 VDDH GND lvsf
x14 net1 GND GND VDDH VDDH SH[4] sky130_fd_sc_hvl__inv_1
x15 net2 GND GND VDDH VDDH SH[3] sky130_fd_sc_hvl__inv_1
x16 net3 GND GND VDDH VDDH SH[2] sky130_fd_sc_hvl__inv_1
x17 net4 GND GND VDDH VDDH SH[1] sky130_fd_sc_hvl__inv_1
.ends


* expanding   symbol:  decoder_2to4.sym # of pins=8
** sym_path: /home/yohanes/10-bit-DAC/xschem/decoder_2to4.sym
** sch_path: /home/yohanes/10-bit-DAC/xschem/decoder_2to4.sch
.subckt decoder_2to4 VPBIAS VNBIAS b[0] b[1] bb[0] bb[1] VOUT[0] VOUT[1] VOUT[2] VOUT[3] VDD VDDH GND
*.PININFO VPBIAS:I VNBIAS:I b[0:1]:I VOUT[0:3]:O VDDH:I GND:I VDD:I bb[0:1]:I
x1 VPBIAS VNBIAS DIN[0] VOUT[1] VOUT[2] VOUT[3] VOUT[0] VDDH GND VDDH GND pull_up_down_network
x2 VPBIAS VNBIAS DIN[1] VOUT[0] VOUT[2] VOUT[3] VOUT[1] VDDH GND VDDH GND pull_up_down_network
x3 VPBIAS VNBIAS DIN[2] VOUT[0] VOUT[1] VOUT[3] VOUT[2] VDDH GND VDDH GND pull_up_down_network
x4 VPBIAS VNBIAS DIN[3] VOUT[0] VOUT[1] VOUT[2] VOUT[3] VDDH GND VDDH GND pull_up_down_network
x6 bb[1] bb[0] GND GND VDD VDD DIN[0] sky130_fd_sc_hd__nand2_1
x7 b[0] bb[1] GND GND VDD VDD DIN[1] sky130_fd_sc_hd__nand2_1
x8 b[1] bb[0] GND GND VDD VDD DIN[2] sky130_fd_sc_hd__nand2_1
x9 b[0] b[1] GND GND VDD VDD DIN[3] sky130_fd_sc_hd__nand2_1
.ends


* expanding   symbol:  lvsf_1buff.sym # of pins=8
** sym_path: /home/yohanes/10-bit-DAC/xschem/lvsf_1buff.sym
** sch_path: /home/yohanes/10-bit-DAC/xschem/lvsf_1buff.sch
.subckt lvsf_1buff VPBIAS VNBIAS IN INB OUT OUTB VDDH GND
*.PININFO IN:I INB:I OUT:O VDDH:I GND:I VPBIAS:I VNBIAS:I OUTB:O
x1 OUTP GND GND VDDH VDDH OUTB sky130_fd_sc_hvl__inv_1
x2 OUTB GND GND VDDH VDDH OUT sky130_fd_sc_hvl__inv_1
x6 VPBIAS VNBIAS IN INB OUTP VDDH GND lvsf
.ends


* expanding   symbol:  op_amp.sym # of pins=6
** sym_path: /home/yohanes/10-bit-DAC/xschem/op_amp.sym
** sch_path: /home/yohanes/10-bit-DAC/xschem/op_amp.sch
.subckt op_amp P_IN[0] P_IN[1] P_IN[2] P_IN[3] P_IN[4] N_IN VOUT ROUT VDDA GNDA
*.PININFO P_IN[0:4]:I ROUT:I VOUT:O VDDA:I GNDA:I N_IN:I
x7 VHEAD1 VHEAD2 I_HEAD0 VDDA head mv=2
x8 VHEAD1 VHEAD2 I_HEAD1 VDDA head mv=2
x9 VHEAD1 VHEAD2 I_HEAD2 VDDA head mv=4
x10 VHEAD1 VHEAD2 I_HEAD3 VDDA head mv=8
x11 VHEAD1 VHEAD2 I_HEAD4 VDDA head mv=16
x12 VTAIL1 VTAIL2 I_TAIL0 GNDA tail mv=2
x13 VTAIL1 VTAIL2 I_TAIL1 GNDA tail mv=2
x14 VTAIL1 VTAIL2 I_TAIL2 GNDA tail mv=4
x15 VTAIL1 VTAIL2 I_TAIL3 GNDA tail mv=8
x16 VTAIL1 VTAIL2 I_TAIL4 GNDA tail mv=16
x6 VHEAD2 VTAIL2 VBS1 VBS2 I_OPA I_OPB I_ONA I_ONB VOUT VDDA GNDA folded_cascode
x4 P_IN[1] N_IN I_OPA I_OPB I_ONA I_ONB I_HEAD1 I_TAIL1 VDDA GNDA diff_pair
x5 P_IN[0] N_IN I_OPA I_OPB I_ONA I_ONB I_HEAD0 I_TAIL0 VDDA GNDA diff_pair
x18 ROUT VHEAD1 VHEAD2 VTAIL1 VTAIL2 VBS1 VBS2 VDDA GNDA bias_opamp
x1 P_IN[3] N_IN I_OPA I_OPB I_ONA I_ONB I_HEAD3 I_TAIL3 VDDA GNDA diff_pair
x2 P_IN[2] N_IN I_OPA I_OPB I_ONA I_ONB I_HEAD2 I_TAIL2 VDDA GNDA diff_pair
x3 P_IN[4] N_IN I_OPA I_OPB I_ONA I_ONB I_HEAD4 I_TAIL4 VDDA GNDA diff_pair
XC1 I_ONA VOUT sky130_fd_pr__cap_mim_m3_1 W=2 L=2 m=20
XC2 I_OPA VOUT sky130_fd_pr__cap_mim_m3_1 W=2 L=2 m=20
XC3 GNDA GNDA sky130_fd_pr__cap_mim_m3_1 W=2 L=2 m=38
.ends


* expanding   symbol:  bias_lvsf.sym # of pins=7
** sym_path: /home/yohanes/10-bit-DAC/xschem/bias_lvsf.sym
** sch_path: /home/yohanes/10-bit-DAC/xschem/bias_lvsf.sch
.subckt bias_lvsf ROUT VBPLV VBNLV VBPDEC VBNDEC VDDA GNDA
*.PININFO ROUT:I VBPLV:O VBNLV:O VBPDEC:O VBNDEC:O VDDA:I GNDA:I
.param wp_iref=1.8 wn_iref=0.6 miref=2 lref=1 lr=20
XM1 n1 n1 VDDA VDDA sky130_fd_pr__pfet_g5v0d10v5 L=1 W=1.8 nf=1 m=2
XM2 n2 n2 n1 VDDA sky130_fd_pr__pfet_g5v0d10v5 L=1 W=1.8 nf=1 m=2
XM3 net1 ROUT n2 VDDA sky130_fd_pr__pfet_g5v0d10v5 L=20 W=1.8 nf=1 m=2
XM4 ROUT ROUT net1 VDDA sky130_fd_pr__pfet_g5v0d10v5 L=20 W=1.8 nf=1 m=2
XM5 net2 n1 VDDA VDDA sky130_fd_pr__pfet_g5v0d10v5 L=1 W=1.8 nf=1 m=2
XM6 n3 n2 net2 VDDA sky130_fd_pr__pfet_g5v0d10v5 L=1 W=1.8 nf=1 m=2
XM9 net3 n1 VDDA VDDA sky130_fd_pr__pfet_g5v0d10v5 L=1 W=1.8 nf=1 m=2
XM10 VBNLV n2 net3 VDDA sky130_fd_pr__pfet_g5v0d10v5 L=1 W=1.8 nf=1 m=2
XM11 net4 n1 VDDA VDDA sky130_fd_pr__pfet_g5v0d10v5 L=1 W=1.8 nf=1 m=2
XM12 VBNDEC n2 net4 VDDA sky130_fd_pr__pfet_g5v0d10v5 L=1 W=1.8 nf=1 m=2
XM22 net6 n1 VDDA VDDA sky130_fd_pr__pfet_g5v0d10v5 L=1 W=1.8 nf=1 m=2
XM23 VBPDEC n2 net6 VDDA sky130_fd_pr__pfet_g5v0d10v5 L=1 W=1.8 nf=1 m=2
XM7 n3 n3 n4 GNDA sky130_fd_pr__nfet_g5v0d10v5 L=1 W=0.6 nf=1 m=2
XM8 n4 n4 GNDA GNDA sky130_fd_pr__nfet_g5v0d10v5 L=1 W=0.6 nf=1 m=2
XM13 VBPLV n3 net5 GNDA sky130_fd_pr__nfet_g5v0d10v5 L=1 W=0.6 nf=1 m=2
XM15 net5 n4 GNDA GNDA sky130_fd_pr__nfet_g5v0d10v5 L=1 W=0.6 nf=1 m=2
XM19 VBNLV VBNLV n6 GNDA sky130_fd_pr__nfet_g5v0d10v5 L=1 W=0.6 nf=1 m=2
XM20 VBNDEC VBNDEC n7 GNDA sky130_fd_pr__nfet_g5v0d10v5 L=1 W=0.6 nf=1 m=2
XM25 VBPDEC VBPDEC n14 GNDA sky130_fd_pr__nfet_g5v0d10v5 L=1 W=0.6 nf=1 m=2
XM14 n6 VBNLV GNDA GNDA sky130_fd_pr__nfet_g5v0d10v5 L=5.3 W=0.6 nf=1 m=1
XM16 n7 VBNDEC GNDA GNDA sky130_fd_pr__nfet_g5v0d10v5 L=9.7 W=0.61 nf=1 m=1
XM27 n14 n14 GNDA GNDA sky130_fd_pr__nfet_g5v0d10v5 L=12 W=0.64 nf=1 m=1
XM18 VBPLV VBPLV n10 VDDA sky130_fd_pr__pfet_g5v0d10v5 L=1 W=1.8 nf=1 m=2
XM17 n10 VBPLV VDDA VDDA sky130_fd_pr__pfet_g5v0d10v5 L=9.2 W=1 nf=1 m=1
XM28 VDDA VDDA VDDA VDDA sky130_fd_pr__pfet_g5v0d10v5 L=20 W=1.8 nf=1 m=2
XM29 VDDA VDDA VDDA VDDA sky130_fd_pr__pfet_g5v0d10v5 L=20 W=1.8 nf=1 m=2
.ends


* expanding   symbol:  buffer_bus.sym # of pins=5
** sym_path: /home/yohanes/10-bit-DAC/xschem/buffer_bus.sym
** sch_path: /home/yohanes/10-bit-DAC/xschem/buffer_bus.sch
.subckt buffer_bus DIN0 DIN1 DIN2 DIN3 DIN4 DIN5 DIN6 DIN7 DIN8 DIN9 D[0] D[1] D[2] D[3] D[4] D[5] D[6] D[7] D[8] D[9] DB[0] DB[1]
+ DB[2] DB[3] DB[4] DB[5] DB[6] DB[7] DB[8] DB[9] VDD GND
*.PININFO DIN[0..9]:I D[0:9]:O DB[0:9]:O VDD:I GND:I
x1 DIN0 GND GND VDD VDD DB[0] sky130_fd_sc_hd__inv_2
x2 DB[0] GND GND VDD VDD D[0] sky130_fd_sc_hd__inv_2
x3 DIN1 GND GND VDD VDD DB[1] sky130_fd_sc_hd__inv_2
x4 DB[1] GND GND VDD VDD D[1] sky130_fd_sc_hd__inv_2
x5 DIN2 GND GND VDD VDD DB[2] sky130_fd_sc_hd__inv_2
x6 DB[2] GND GND VDD VDD D[2] sky130_fd_sc_hd__inv_2
x7 DIN3 GND GND VDD VDD DB[3] sky130_fd_sc_hd__inv_2
x8 DB[3] GND GND VDD VDD D[3] sky130_fd_sc_hd__inv_2
x9 DIN4 GND GND VDD VDD DB[4] sky130_fd_sc_hd__inv_2
x10 DB[4] GND GND VDD VDD D[4] sky130_fd_sc_hd__inv_2
x11 DIN5 GND GND VDD VDD DB[5] sky130_fd_sc_hd__inv_2
x12 DB[5] GND GND VDD VDD D[5] sky130_fd_sc_hd__inv_2
x13 DIN6 GND GND VDD VDD DB[6] sky130_fd_sc_hd__inv_2
x14 DB[6] GND GND VDD VDD D[6] sky130_fd_sc_hd__inv_2
x15 DIN7 GND GND VDD VDD DB[7] sky130_fd_sc_hd__inv_2
x16 DB[7] GND GND VDD VDD D[7] sky130_fd_sc_hd__inv_2
x17 DIN8 GND GND VDD VDD DB[8] sky130_fd_sc_hd__inv_2
x18 DB[8] GND GND VDD VDD D[8] sky130_fd_sc_hd__inv_2
x19 DIN9 GND GND VDD VDD DB[9] sky130_fd_sc_hd__inv_2
x20 DB[9] GND GND VDD VDD D[9] sky130_fd_sc_hd__inv_2
.ends


* expanding   symbol:  inv_hvl_4o.sym # of pins=4
** sym_path: /home/yohanes/10-bit-DAC/xschem/inv_hvl_4o.sym
** sch_path: /home/yohanes/10-bit-DAC/xschem/inv_hvl_4o.sch
.subckt inv_hvl_4o IN[0] IN[1] IN[2] IN[3] OUT[0] OUT[1] OUT[2] OUT[3] VDDH GND
*.PININFO IN[0:3]:I OUT[0:3]:O VDDH:I GND:I
x1 IN[0] GND GND VDDH VDDH OUT[0] sky130_fd_sc_hvl__inv_1
x2 IN[1] GND GND VDDH VDDH OUT[1] sky130_fd_sc_hvl__inv_1
x3 IN[2] GND GND VDDH VDDH OUT[2] sky130_fd_sc_hvl__inv_1
x4 IN[3] GND GND VDDH VDDH OUT[3] sky130_fd_sc_hvl__inv_1
.ends


* expanding   symbol:  logic_shift_seg2.sym # of pins=6
** sym_path: /home/yohanes/10-bit-DAC/xschem/logic_shift_seg2.sym
** sch_path: /home/yohanes/10-bit-DAC/xschem/logic_shift_seg2.sch
.subckt logic_shift_seg2 b[6] b[7] b[8] b[9] bb[6] bb[7] bb[8] BS[8] BS[9] BSB[8] BSB[9] VDD GND
*.PININFO b[6:9]:I BS[8:9]:O GND:I VDD:I bb[6:8]:I BSB[8:9]:O
x1 b[9] b[8] GND GND VDD VDD n1 sky130_fd_sc_hd__nand2_1
x2 b[7] b[9] GND GND VDD VDD n2 sky130_fd_sc_hd__nand2_1
x3 b[6] b[9] GND GND VDD VDD n3 sky130_fd_sc_hd__nand2_1
x5 bb[6] bb[7] bb[8] GND GND VDD VDD n6 sky130_fd_sc_hd__nand3_1
x4 n1 n3 n2 GND GND VDD VDD BS[9] sky130_fd_sc_hd__nand3_1
x6 b[6] b[8] GND GND VDD VDD n4 sky130_fd_sc_hd__nand2_1
x7 b[8] b[7] GND GND VDD VDD n5 sky130_fd_sc_hd__nand2_1
x8 n6 n5 n4 GND GND VDD VDD BS[8] sky130_fd_sc_hd__nand3_1
x9 BS[9] GND GND VDD VDD BSB[9] sky130_fd_sc_hd__inv_1
x10 BS[8] GND GND VDD VDD BSB[8] sky130_fd_sc_hd__inv_1
.ends


* expanding   symbol:  top_segment_1.sym # of pins=7
** sym_path: /home/yohanes/10-bit-DAC/xschem/top_segment_1.sym
** sch_path: /home/yohanes/10-bit-DAC/xschem/top_segment_1.sch
.subckt top_segment_1 V0 V64 DEC[0] DEC[1] DEC[2] DEC[3] b[0] b[1] b[2] b[3] bb[0] bb[1] bb[2] bb[3] VOUT GND
*.PININFO V64:I VOUT:O GND:I DEC[0:3]:I b[0:3]:I bb[0:3]:I V0:I
x1 V0 V1 V2 V3 V4 V5 V6 V7 V8 V9 V10 V11 V12 V13 V14 V15 V16 V17 V18 V19 V20 V21 V22 V23 V24 V25 V26 V27 V28 V29 V30 V31 V32 V33
+ V34 V35 V36 V37 V38 V39 V40 V41 V42 V43 V44 V45 V46 V47 V48 V49 V50 V51 V52 V53 V54 V55 V56 V57 V58 V59 V60 V61 V62 V63 DEC[0] DEC[1]
+ DEC[2] DEC[3] v1[0] v1[1] v1[2] v1[3] v1[4] v1[5] v1[6] v1[7] v1[8] v1[9] v1[10] v1[11] v1[12] v1[13] v1[14] v1[15] GND
+ vselector_6b_1v_stage_1
x2 v1[0] v1[1] v1[2] v1[3] v1[4] v1[5] v1[6] v1[7] bb[3] v2[0] v2[1] v2[2] v2[3] v2[4] v2[5] v2[6] v2[7] GND switch_nmos_1g_8o
x3 v1[8] v1[9] v1[10] v1[11] v1[12] v1[13] v1[14] v1[15] b[3] v2[0] v2[1] v2[2] v2[3] v2[4] v2[5] v2[6] v2[7] GND
+ switch_nmos_1g_8o
x4 v2[0] v2[1] v2[2] v2[3] bb[2] v3[0] v3[1] v3[2] v3[3] GND switch_nmos_1g_4o
x5 v2[4] v2[5] v2[6] v2[7] b[2] v3[0] v3[1] v3[2] v3[3] GND switch_nmos_1g_4o
x6 v3[0] v3[1] bb[1] v4[0] v4[1] GND switch_nmos_1g_2o
x7 v3[2] v3[3] b[1] v4[0] v4[1] GND switch_nmos_1g_2o
x8 v4[0] v4[1] b[0] bb[0] VOUT VOUT GND switch_nmos_2g_2o
x9 V0 V1 V2 V3 V4 V5 V6 V7 V8 V9 V10 V11 V12 V13 V14 V15 V16 V17 V18 V19 V20 V21 V22 V23 V24 V25 V26 V27 V28 V29 V30 V31 V32 V33
+ V34 V35 V36 V37 V38 V39 V40 V41 V42 V43 V44 V45 V46 V47 V48 V49 V50 V51 V52 V53 V54 V55 V56 V57 V58 V59 V60 V61 V62 V63 V64 GND
+ rseg_1_v3
.ends


* expanding   symbol:  top_segment_2.sym # of pins=8
** sym_path: /home/yohanes/10-bit-DAC/xschem/top_segment_2.sym
** sch_path: /home/yohanes/10-bit-DAC/xschem/top_segment_2.sch
.subckt top_segment_2 V0 V48 dec0[0] dec0[1] dec0[2] dec1[0] dec1[1] dec1[2] dec1[3] dec2[0] dec2[1] dec2[2] dec2[3] VH VL GND
*.PININFO V48:I VH:O GND:I dec0[0:2]:I VL:O dec1[0:3]:I dec2[0:3]:I V0:I
x1 V0 V1 V2 V3 V4 V5 V6 V7 V8 V9 V10 V11 V12 V13 V14 V15 V16 V17 V18 V19 V20 V21 V22 V23 V24 V25 V26 V27 V28 V29 V30 V31 V32 V33
+ V34 V35 V36 V37 V38 V39 V40 V41 V42 V43 V44 V45 V46 V47 V48 dec0[0] dec0[1] dec0[2] vout1[0] vout1[1] vout1[2] vout1[3] vout1[4]
+ vout1[5] vout1[6] vout1[7] vout1[8] vout1[9] vout1[10] vout1[11] vout1[12] vout1[13] vout1[14] vout1[15] vout1[16] GND
+ vselector_6b_2v_stage_1
x2 vout1[0] vout1[1] vout1[2] vout1[3] vout1[4] vout1[5] vout1[6] vout1[7] vout1[8] vout1[9] vout1[10] vout1[11] vout1[12]
+ vout1[13] vout1[14] vout1[15] vout1[16] dec1[1] dec1[2] dec1[3] dec1[0] vout2[0] vout2[1] vout2[2] vout2[3] vout2[4] GND
+ vselector_6b_2v_stage_2
x3 vout2[0] vout2[1] vout2[2] vout2[3] vout2[4] dec2[0] dec2[1] dec2[2] dec2[3] VH VL GND vselector_6b_2v_stage_3
.param wp=0.42 wn=0.42 l=0.5

x4 V0 V1 V2 V3 V4 V5 V6 V7 V8 V9 V10 V11 V12 V13 V14 V15 V16 V17 V18 V19 V20 V21 V22 V23 V24 V25 V26 V27 V28 V29 V30 V31 V32 V33
+ V34 V35 V36 V37 V38 V39 V40 V41 V42 V43 V44 V45 V46 V47 V48 GND rseg_2_v3
.ends


* expanding   symbol:  top_segment_3.sym # of pins=8
** sym_path: /home/yohanes/10-bit-DAC/xschem/top_segment_3.sym
** sch_path: /home/yohanes/10-bit-DAC/xschem/top_segment_3.sch
.subckt top_segment_3 V0 V16 b[3] b[4] b[5] b[6] bb[3] bb[4] bb[5] bb[6] VH VL GND VPB
*.PININFO VH:O VPB:I b[3:6]:I VL:O bb[3:6]:I V16:I V0:I GND:I
x1 V0 V1 V2 V3 V4 V5 V6 V7 V8 bb[6] v1[0] v1[1] v1[2] v1[3] v1[4] v1[5] v1[6] v1[7] v1[8] VPB switch_pmos_1g_9o
x2 V8 V9 V10 V11 V12 V13 V14 V15 V16 b[6] v1[0] v1[1] v1[2] v1[3] v1[4] v1[5] v1[6] v1[7] v1[8] VPB switch_pmos_1g_9o
x3 v1[0] v1[1] v1[2] v1[3] v1[4] b[5] v2[0] v2[1] v2[2] v2[3] v2[4] VPB switch_pmos_1g_5o
x4 v1[4] v1[5] v1[6] v1[7] v1[8] bb[5] v2[0] v2[1] v2[2] v2[3] v2[4] VPB switch_pmos_1g_5o
x5 v2[0] v2[1] v2[2] b[4] v3[0] v3[1] v3[2] VPB switch_pmos_1g_3o
x6 v2[2] v2[3] v2[4] bb[4] v3[0] v3[1] v3[2] VPB switch_pmos_1g_3o
x7 v3[0] v3[1] b[3] VH VL VPB switch_pmos_1g_2o
x8 v3[1] v3[2] bb[3] VH VL VPB switch_pmos_1g_2o
x9 V0 V1 V2 V3 V4 V5 V6 V7 V8 V9 V10 V11 V12 V13 V14 V15 V16 GND rseg_3_v3
.ends


* expanding   symbol:  top_segment_4.sym # of pins=8
** sym_path: /home/yohanes/10-bit-DAC/xschem/top_segment_4.sym
** sch_path: /home/yohanes/10-bit-DAC/xschem/top_segment_4.sch
.subckt top_segment_4 V0 V63 DEC0 DEC1 DEC2 DEC3 b0 b1 b2 b3 bb0 bb1 bb2 bb3 VOUT GND VPB
*.PININFO VOUT:O VPB:I DEC[0..3]:I b[0..3]:I bb[0..3]:I GND:I V0:I V63:I
x1 V0 V1 V2 V3 V4 V5 V6 V7 V8 V9 V10 V11 V12 V13 V14 V15 V16 V17 V18 V19 V20 V21 V22 V23 V24 V25 V26 V27 V28 V29 V30 V31 V32 V33
+ V34 V35 V36 V37 V38 V39 V40 V41 V42 V43 V44 V45 V46 V47 V48 V49 V50 V51 V52 V53 V54 V55 V56 V57 V58 V59 V60 V61 V62 V63 DEC0 DEC1
+ DEC2 DEC3 VA0 VA1 VA2 VA3 VA4 VA5 VA6 VA7 VA8 VA9 VA10 VA11 VA12 VA13 VA14 VA15 VPB vselector_6b_1v_stage_1_pmos
x2 VA0 VA1 VA2 VA3 VA4 VA5 VA6 VA7 b3 VB0 VB1 VB2 VB3 VB4 VB5 VB6 VB7 VPB switch_pmos_1g_8o
x3 VA8 VA9 VA10 VA11 VA12 VA13 VA14 VA15 bb3 VB0 VB1 VB2 VB3 VB4 VB5 VB6 VB7 VPB switch_pmos_1g_8o
x4 VB0 VB1 VB2 VB3 b2 VC0 VC1 VC2 VC3 VPB switch_pmos_1g_4o
x5 VB4 VB5 VB6 VB7 bb2 VC0 VC1 VC2 VC3 VPB switch_pmos_1g_4o
x6 VC0 VC1 b1 VD1 VD0 VPB switch_pmos_1g_2o
x7 VC2 VC3 bb1 VD1 VD0 VPB switch_pmos_1g_2o
x8 VD0 VD1 b0 bb0 VOUT VPB switch_pmos_2g_1o
x9 V0 V1 V2 V3 V4 V5 V6 V7 V8 V9 V10 V11 V12 V13 V14 V15 V16 V17 V18 V19 V20 V21 V22 V23 V24 V25 V26 V27 V28 V29 V30 V31 V32 V33
+ V34 V35 V36 V37 V38 V39 V40 V41 V42 V43 V44 V45 V46 V47 V48 V49 V50 V51 V52 V53 V54 V55 V56 V57 V58 V59 V60 V61 V62 V63 GND rseg_4_v3
.ends


* expanding   symbol:  seg_selector_1.sym # of pins=4
** sym_path: /home/yohanes/10-bit-DAC/xschem/seg_selector_1.sym
** sch_path: /home/yohanes/10-bit-DAC/xschem/seg_selector_1.sch
.subckt seg_selector_1 DIN VIN vout[0] vout[1] vout[2] vout[3] vout[4] VNB
*.PININFO vout[0:4]:O VNB:I DIN:I VIN:I
.param wp=0.42 wn=0.42 l=0.5

XM1 vout[0] DIN VIN VNB sky130_fd_pr__nfet_g5v0d10v5 L=l W=wn nf=1 m=1
XM2 vout[1] DIN VIN VNB sky130_fd_pr__nfet_g5v0d10v5 L=l W=wn nf=1 m=1
XM3 vout[2] DIN VIN VNB sky130_fd_pr__nfet_g5v0d10v5 L=l W=wn nf=1 m=1
XM4 vout[3] DIN VIN VNB sky130_fd_pr__nfet_g5v0d10v5 L=l W=wn nf=1 m=1
XM5 vout[4] DIN VIN VNB sky130_fd_pr__nfet_g5v0d10v5 L=l W=wn nf=1 m=1
.ends


* expanding   symbol:  seg_selector_2.sym # of pins=5
** sym_path: /home/yohanes/10-bit-DAC/xschem/seg_selector_2.sym
** sch_path: /home/yohanes/10-bit-DAC/xschem/seg_selector_2.sch
.subckt seg_selector_2 DIN VL vin[0] vin[1] vin[2] vin[3] vout[0] vout[1] vout[2] vout[3] vout[4] VNB
*.PININFO vout[0:4]:O VNB:I DIN:I vin[0:3]:I VL:I
.param wp=0.42 wn=0.42 l=0.5

XM1 vout[0] DIN VL VNB sky130_fd_pr__nfet_g5v0d10v5 L=l W=wn nf=1 m=1
XM2 vout[1] DIN vin[0] VNB sky130_fd_pr__nfet_g5v0d10v5 L=l W=wn nf=1 m=1
XM3 vout[2] DIN vin[1] VNB sky130_fd_pr__nfet_g5v0d10v5 L=l W=wn nf=1 m=1
XM4 vout[3] DIN vin[2] VNB sky130_fd_pr__nfet_g5v0d10v5 L=l W=wn nf=1 m=1
XM5 vout[4] DIN vin[3] VNB sky130_fd_pr__nfet_g5v0d10v5 L=l W=wn nf=1 m=1
.ends


* expanding   symbol:  seg_selector_3.sym # of pins=5
** sym_path: /home/yohanes/10-bit-DAC/xschem/seg_selector_3.sym
** sch_path: /home/yohanes/10-bit-DAC/xschem/seg_selector_3.sch
.subckt seg_selector_3 DINB VL vin[0] vin[1] vin[2] vout[0] vout[1] vout[2] vout[3] vout[4] VPB
*.PININFO vout[0:4]:O VPB:I DINB:I vin[0:2]:I VL:I
.param wp=0.42 wn=0.42 l=0.5

XM1 vout[0] DINB VL VPB sky130_fd_pr__pfet_g5v0d10v5 L=l W=wp nf=1 m=1
XM2 vout[1] DINB VL VPB sky130_fd_pr__pfet_g5v0d10v5 L=l W=wp nf=1 m=1
XM3 vout[2] DINB vin[0] VPB sky130_fd_pr__pfet_g5v0d10v5 L=l W=wp nf=1 m=1
XM4 vout[3] DINB vin[1] VPB sky130_fd_pr__pfet_g5v0d10v5 L=l W=wp nf=1 m=1
XM5 vout[4] DINB vin[2] VPB sky130_fd_pr__pfet_g5v0d10v5 L=l W=wp nf=1 m=1
.ends


* expanding   symbol:  seg_selector_4.sym # of pins=4
** sym_path: /home/yohanes/10-bit-DAC/xschem/seg_selector_4.sym
** sch_path: /home/yohanes/10-bit-DAC/xschem/seg_selector_4.sch
.subckt seg_selector_4 DINB VIN vout[0] vout[1] vout[2] vout[3] vout[4] VPB
*.PININFO vout[0:4]:O VPB:I DINB:I VIN:I
.param wp=0.42 wn=0.42 l=0.5

XM1 vout[0] DINB VIN VPB sky130_fd_pr__pfet_g5v0d10v5 L=l W=wp nf=1 m=1
XM2 vout[1] DINB VIN VPB sky130_fd_pr__pfet_g5v0d10v5 L=l W=wp nf=1 m=1
XM3 vout[2] DINB VIN VPB sky130_fd_pr__pfet_g5v0d10v5 L=l W=wp nf=1 m=1
XM4 vout[3] DINB VIN VPB sky130_fd_pr__pfet_g5v0d10v5 L=l W=wp nf=1 m=1
XM5 vout[4] DINB VIN VPB sky130_fd_pr__pfet_g5v0d10v5 L=l W=wp nf=1 m=1
.ends


* expanding   symbol:  seg_selector_logic.sym # of pins=6
** sym_path: /home/yohanes/10-bit-DAC/xschem/seg_selector_logic.sym
** sch_path: /home/yohanes/10-bit-DAC/xschem/seg_selector_logic.sch
.subckt seg_selector_logic b[6] b[7] b[8] b[9] bb[6] bb[7] bb[8] bb[9] S[1] S[2] S[3] S[4] SB[1] SB[2] SB[3] SB[4] VDD GND
*.PININFO b[6:9]:I S[1:4]:O GND:I VDD:I bb[6:9]:I SB[1:4]:O
x1 bb[6] bb[7] bb[8] bb[9] S[1] VDD GND seg_selector_1_logic
x2 b[6] b[7] b[8] b[9] bb[6] bb[7] bb[8] bb[9] S[2] VDD GND seg_selector_2_logic
x3 b[6] b[7] b[8] b[9] bb[6] bb[7] S[3] VDD GND seg_selector_3_logic
x4 b[6] b[7] b[8] b[9] S[4] VDD GND seg_selector_4_logic
x10 S[1] GND GND VDD VDD SB[1] sky130_fd_sc_hd__inv_1
x11 S[2] GND GND VDD VDD SB[2] sky130_fd_sc_hd__inv_1
x12 S[3] GND GND VDD VDD SB[3] sky130_fd_sc_hd__inv_1
x13 S[4] GND GND VDD VDD SB[4] sky130_fd_sc_hd__inv_1
.ends


* expanding   symbol:  lvsf.sym # of pins=7
** sym_path: /home/yohanes/10-bit-DAC/xschem/lvsf.sym
** sch_path: /home/yohanes/10-bit-DAC/xschem/lvsf.sch
.subckt lvsf VPBIAS VNBIAS IN INB OUTP VDDH GND
*.PININFO IN:I INB:I OUTP:O VDDH:I GND:I VPBIAS:I VNBIAS:I
XM1 net1 VPBIAS VDDH VDDH sky130_fd_pr__pfet_g5v0d10v5 L=0.8 W=1 nf=1 m=1
XM2 net2 VPBIAS VDDH VDDH sky130_fd_pr__pfet_g5v0d10v5 L=0.8 W=1 nf=1 m=1
XM3 OUTPB OUTP net1 VDDH sky130_fd_pr__pfet_g5v0d10v5 L=0.8 W=1 nf=1 m=1
XM4 OUTP OUTPB net2 VDDH sky130_fd_pr__pfet_g5v0d10v5 L=0.8 W=1 nf=1 m=1
XM8 OUTP VNBIAS n2 GND sky130_fd_pr__nfet_g5v0d10v5 L=1 W=1 nf=1 m=1
XM5 OUTPB VNBIAS n1 GND sky130_fd_pr__nfet_g5v0d10v5 L=1 W=1 nf=1 m=1
XM6 n1 IN GND GND sky130_fd_pr__nfet_01v8 L=0.15 W=3 nf=1 m=1
XM7 n2 INB GND GND sky130_fd_pr__nfet_01v8 L=0.15 W=3 nf=1 m=1
.ends


* expanding   symbol:  pull_up_down_network.sym # of pins=9
** sym_path: /home/yohanes/10-bit-DAC/xschem/pull_up_down_network.sym
** sch_path: /home/yohanes/10-bit-DAC/xschem/pull_up_down_network.sch
.subckt pull_up_down_network VPBIAS VNBIAS DIN V[0] V[1] V[2] VOUT VDDH GND VPB VNB
*.PININFO VPBIAS:I VNBIAS:I DIN:I V[0:2]:I VOUT:O VDDH:I GND:I VPB:I VNB:I
XM1 net2 VPBIAS VDDH VPB sky130_fd_pr__pfet_g5v0d10v5 L=l W=wp nf=1 m=1
.param wp=0.84 wn=1 l=1

XM2 net3 V[0] net2 VPB sky130_fd_pr__pfet_g5v0d10v5 L=l W=wp nf=1 m=1
XM3 net4 V[1] net3 VPB sky130_fd_pr__pfet_g5v0d10v5 L=l W=wp nf=1 m=1
XM4 VOUT V[2] net4 VPB sky130_fd_pr__pfet_g5v0d10v5 L=l W=wp nf=1 m=1
XM5 VOUT VNBIAS net1 VNB sky130_fd_pr__nfet_g5v0d10v5 L=l W=wn nf=1 m=1
XM6 net1 DIN GND VNB sky130_fd_pr__nfet_01v8 L=0.15 W=2 nf=1 m=1
.ends


* expanding   symbol:  head.sym # of pins=4
** sym_path: /home/yohanes/10-bit-DAC/xschem/head.sym
** sch_path: /home/yohanes/10-bit-DAC/xschem/head.sch
.subckt head VB1 VB2 I_OUT VDDA  mv=1
*.PININFO I_OUT:O VB1:I VB2:I VDDA:I
XM5 n1 VB1 VDDA VDDA sky130_fd_pr__pfet_g5v0d10v5 L=1 W=1.8 nf=1 m=mv
XM1 I_OUT VB2 n1 VDDA sky130_fd_pr__pfet_g5v0d10v5 L=1 W=1.8 nf=1 m=mv
.ends


* expanding   symbol:  tail.sym # of pins=4
** sym_path: /home/yohanes/10-bit-DAC/xschem/tail.sym
** sch_path: /home/yohanes/10-bit-DAC/xschem/tail.sch
.subckt tail VB1 VB2 I_OUT GNDA  mv=1
*.PININFO I_OUT:O VB1:I VB2:I GNDA:I
XM1 I_OUT VB2 n1 GNDA sky130_fd_pr__nfet_g5v0d10v5 L=1 W=0.6 nf=1 m=mv
XM2 n1 VB1 GNDA GNDA sky130_fd_pr__nfet_g5v0d10v5 L=1 W=0.6 nf=1 m=mv
.ends


* expanding   symbol:  folded_cascode.sym # of pins=11
** sym_path: /home/yohanes/10-bit-DAC/xschem/folded_cascode.sym
** sch_path: /home/yohanes/10-bit-DAC/xschem/folded_cascode.sch
.subckt folded_cascode VBS1 VBS2 VB1 VB2 I_OPA I_OPB I_ONA I_ONB VOUT VDDA GNDA
*.PININFO I_OPA:I I_OPB:I I_ONA:I I_ONB:I VOUT:O VBS1:I VBS2:I VB1:I VB2:I VDDA:I GNDA:I
.param wp_sum=4.8 wn_sum=1.6 l_sum=1 m_sum=2 wp_fcm=4.8 wn_fcm=1.6 m_fcm=2

XM1 I_ONB VGP VDDA VDDA sky130_fd_pr__pfet_g5v0d10v5 L=1 W=4.8 nf=1 m=2
XM8 VGP VB2 VGN GNDA sky130_fd_pr__nfet_g5v0d10v5 L=1 W=1.6 nf=1 m=2
XM13 GNDA GNDA GNDA GNDA sky130_fd_pr__nfet_g5v0d10v5 L=1 W=1.6 nf=1 m=4
XM2 I_ONA VGP VDDA VDDA sky130_fd_pr__pfet_g5v0d10v5 L=1 W=4.8 nf=1 m=2
XM3 VGP VBS1 I_ONB VDDA sky130_fd_pr__pfet_g5v0d10v5 L=1 W=4.8 nf=1 m=2
XM4 A VBS1 I_ONA VDDA sky130_fd_pr__pfet_g5v0d10v5 L=1 W=4.8 nf=1 m=2
XM5 VGN VB1 VGP VDDA sky130_fd_pr__pfet_g5v0d10v5 L=1 W=4.8 nf=1 m=2
XM6 B VB1 A VDDA sky130_fd_pr__pfet_g5v0d10v5 L=1 W=4.8 nf=1 m=2
XM7 A VB2 B GNDA sky130_fd_pr__nfet_g5v0d10v5 L=1 W=1.6 nf=1 m=2
XM10 VGN VBS2 I_OPB GNDA sky130_fd_pr__nfet_g5v0d10v5 L=1 W=1.6 nf=1 m=2
XM11 B VBS2 I_OPA GNDA sky130_fd_pr__nfet_g5v0d10v5 L=1 W=1.6 nf=1 m=2
XM9 I_OPB VGN GNDA GNDA sky130_fd_pr__nfet_g5v0d10v5 L=1 W=1.6 nf=1 m=6
XM12 I_OPA VGN GNDA GNDA sky130_fd_pr__nfet_g5v0d10v5 L=1 W=1.6 nf=1 m=6
XM14 VOUT B GNDA GNDA sky130_fd_pr__nfet_g5v0d10v5 L=1 W=2 nf=1 m=2
XM15 VOUT A VDDA VDDA sky130_fd_pr__pfet_g5v0d10v5 L=1 W=6 nf=1 m=2
.ends


* expanding   symbol:  diff_pair.sym # of pins=10
** sym_path: /home/yohanes/10-bit-DAC/xschem/diff_pair.sym
** sch_path: /home/yohanes/10-bit-DAC/xschem/diff_pair.sch
.subckt diff_pair P_IN N_IN I_OPA I_OPB I_ONA I_ONB I_HEAD I_TAIL VPB VNB  weight=1
*.PININFO I_OPA:O I_OPB:O P_IN:I N_IN:I I_ONA:O I_ONB:O I_HEAD:I I_TAIL:I VPB:I VNB:I
.param wp_diff=3 wn_diff=1 l_diff=1

XM5 I_OPA P_IN I_HEAD VPB sky130_fd_pr__pfet_g5v0d10v5 L=1 W=3 nf=1 m=4
XM1 I_OPB N_IN I_HEAD VPB sky130_fd_pr__pfet_g5v0d10v5 L=1 W=3 nf=1 m=4
XM3 I_ONA P_IN I_TAIL VNB sky130_fd_pr__nfet_g5v0d10v5 L=1 W=1 nf=1 m=4
XM2 I_ONB N_IN I_TAIL VNB sky130_fd_pr__nfet_g5v0d10v5 L=1 W=1 nf=1 m=4
.ends


* expanding   symbol:  bias_opamp.sym # of pins=9
** sym_path: /home/yohanes/10-bit-DAC/xschem/bias_opamp.sym
** sch_path: /home/yohanes/10-bit-DAC/xschem/bias_opamp.sch
.subckt bias_opamp ROUT VHEAD1 VHEAD2 VTAIL1 VTAIL2 VBS1 VBS2 VDDA GNDA
*.PININFO ROUT:I VHEAD1:O VDDA:I GNDA:I VHEAD2:O VTAIL1:O VTAIL2:O VBS1:O VBS2:O
.param wp_iref=1.8 wn_iref=0.6 miref=20 miref2=8 wp_bias=4.8 wn_bias=1.6 mbias=2 l=1 lref=1 lr=20
XM1 net1 VHEAD1 VDDA VDDA sky130_fd_pr__pfet_g5v0d10v5 L=1 W=1.8 nf=1 m=20
XM2 VHEAD1 VHEAD2 net1 VDDA sky130_fd_pr__pfet_g5v0d10v5 L=1 W=1.8 nf=1 m=20
XM7 net6 VHEAD1 VDDA VDDA sky130_fd_pr__pfet_g5v0d10v5 L=1 W=1.8 nf=1 m=20
XM8 net5 VHEAD2 net6 VDDA sky130_fd_pr__pfet_g5v0d10v5 L=1 W=1.8 nf=1 m=20
XM3 VHEAD2 net2 VHEAD1 VDDA sky130_fd_pr__pfet_g5v0d10v5 L=20 W=1.8 nf=1 m=2
XM4 net2 net2 VHEAD2 VDDA sky130_fd_pr__pfet_g5v0d10v5 L=20 W=1.8 nf=1 m=2
XM5 net3 ROUT net2 VDDA sky130_fd_pr__pfet_g5v0d10v5 L=20 W=1.8 nf=1 m=2
XM6 ROUT ROUT net3 VDDA sky130_fd_pr__pfet_g5v0d10v5 L=20 W=1.8 nf=1 m=2
XM13 net7 VHEAD1 VDDA VDDA sky130_fd_pr__pfet_g5v0d10v5 L=1 W=1.8 nf=1 m=8
XM14 VBS2 VHEAD2 net7 VDDA sky130_fd_pr__pfet_g5v0d10v5 L=1 W=1.8 nf=1 m=8
XM17 PVB PVB VDDA VDDA sky130_fd_pr__pfet_g5v0d10v5 L=1 W=4.8 nf=1 m=2
XM18 VBS1 VBS1 PVB VDDA sky130_fd_pr__pfet_g5v0d10v5 L=1 W=4.8 nf=1 m=2
XM11 net4 VTAIL1 GNDA GNDA sky130_fd_pr__nfet_g5v0d10v5 L=1 W=0.6 nf=1 m=20
XM12 VTAIL1 VTAIL2 net4 GNDA sky130_fd_pr__nfet_g5v0d10v5 L=1 W=0.6 nf=1 m=20
XM9 net5 net5 VTAIL2 GNDA sky130_fd_pr__nfet_g5v0d10v5 L=20 W=0.6 nf=1 m=2
XM10 VTAIL2 net5 VTAIL1 GNDA sky130_fd_pr__nfet_g5v0d10v5 L=20 W=0.6 nf=1 m=2
XM22 GNDA GNDA GNDA GNDA sky130_fd_pr__nfet_g5v0d10v5 L=1 W=0.6 nf=1 m=6
XM19 net8 VTAIL1 GNDA GNDA sky130_fd_pr__nfet_g5v0d10v5 L=1 W=0.6 nf=1 m=8
XM20 VBS1 VTAIL2 net8 GNDA sky130_fd_pr__nfet_g5v0d10v5 L=1 W=0.6 nf=1 m=8
XM15 NVB NVB GNDA GNDA sky130_fd_pr__nfet_g5v0d10v5 L=1 W=1.6 nf=1 m=2
XM16 VBS2 VBS2 NVB GNDA sky130_fd_pr__nfet_g5v0d10v5 L=1 W=1.6 nf=1 m=2
XM23 GNDA GNDA GNDA GNDA sky130_fd_pr__nfet_g5v0d10v5 L=1 W=0.6 nf=1 m=6
XM24 VDDA VDDA VDDA VDDA sky130_fd_pr__pfet_g5v0d10v5 L=1 W=1.8 nf=1 m=8
XM25 VDDA VDDA VDDA VDDA sky130_fd_pr__pfet_g5v0d10v5 L=1 W=1.8 nf=1 m=16
XM26 VDDA VDDA VDDA VDDA sky130_fd_pr__pfet_g5v0d10v5 L=1 W=1.8 nf=1 m=16
XM27 GNDA GNDA GNDA GNDA sky130_fd_pr__nfet_g5v0d10v5 L=1 W=0.6 nf=1 m=4
.ends


* expanding   symbol:  vselector_6b_1v_stage_1.sym # of pins=4