* PEX produced on Sat Jun 28 05:13:49 WIB 2025 using ./iic-pex.sh with m=2 and s=1
* NGSPICE file created from DAC_10b_top.ext - technology: sky130A

.subckt DAC_10b_posim_top DIN0 DIN1 DIN2 DIN3 DIN4 DIN5 DIN6 DIN7 DIN8 DIN9 ROUT1 ROUT2
+ VDD VDDH GND VOUT
X0 top_DAC_0/top_rseg_n_dcell_0.top_dcell_routing_0.top_dcell_bias_0/top_digital_cell_0.decoder_3_0/decoder_2to4_1.dec_logic_0/sky130_fd_sc_hd__nand2_1_3.Y top_DAC_0/top_rseg_n_dcell_0.top_dcell_routing_0.top_dcell_bias_0/top_digital_cell_0.decoder_3_0/decoder_2to4_1.b[1] VDD VDD sky130_fd_pr__pfet_01v8_hvt ad=0.135 pd=1.27 as=0.26 ps=2.52 w=1 l=0.15
X1 a_45343_4538# top_DAC_0/top_rseg_n_dcell_0.top_dcell_routing_0.top_dcell_bias_0/top_digital_cell_0.dcell_lv_0.bb[8] GND GND sky130_fd_pr__nfet_01v8 ad=0.08775 pd=0.92 as=0.169 ps=1.82 w=0.65 l=0.15
X2 top_DAC_0/top_buffer_opamp_0.opa_input_and_self_bias_0/opa_input_stage_0/opa_diffpairs_0/dp_nmos_top_0/dp_nmos_5.I_ONA top_DAC_0/top_final_switch_0.VOUT[1] a_6778_12595# GND sky130_fd_pr__nfet_g5v0d10v5 ad=0.145 pd=1.29 as=0.145 ps=1.29 w=1 l=1
X3 GND GND GND sky130_fd_pr__res_xhigh_po_1p41 l=1.73
X4 top_DAC_0/top_rseg_n_dcell_0.top_segment_1_0.rseg_1_v3_1.v9 top_DAC_0/top_rseg_n_dcell_0.top_segment_2_0.DEC2[0] a_30056_7686# GND sky130_fd_pr__nfet_g5v0d10v5 ad=0.1218 pd=1.42 as=0.1218 ps=1.42 w=0.42 l=0.5
X5 GND GND GND GND sky130_fd_pr__nfet_g5v0d10v5 ad=0.174 pd=1.78 as=33.8968 ps=329.23999 w=0.6 l=1
X6 a_44062_19517# top_DAC_0/top_rseg_n_dcell_0.top_dcell_routing_0.top_dcell_bias_0/top_digital_cell_0.VBNDEC top_DAC_0/top_rseg_n_dcell_0.top_segment_2_0.DEC1[0] GND sky130_fd_pr__nfet_g5v0d10v5 ad=0.29 pd=2.58 as=0.29 ps=2.58 w=1 l=1
X7 top_DAC_0/top_rseg_n_dcell_0.top_segment_4_1.rseg_4_routing_0/rseg_4_v3_0.v2 top_DAC_0/top_rseg_n_dcell_0.top_segment_4_1.DEC0 a_14331_6250# VDDH sky130_fd_pr__pfet_g5v0d10v5 ad=0.1218 pd=1.42 as=0.1218 ps=1.42 w=0.42 l=0.5
X8 a_21927_20174# top_DAC_0/top_rseg_n_dcell_0.top_segment_2_0.DEC1[0] a_23629_18133# GND sky130_fd_pr__nfet_g5v0d10v5 ad=0.1218 pd=1.42 as=0.1218 ps=1.42 w=0.42 l=0.5
X9 top_DAC_0/top_rseg_n_dcell_0.top_segment_2_0.rseg_2_v3_0.v2 top_DAC_0/top_rseg_n_dcell_0.top_segment_2_0.rseg_2_v3_0.v1 GND sky130_fd_pr__res_xhigh_po_1p41 l=10.24
X10 a_44234_9966# top_DAC_0/top_rseg_n_dcell_0.top_dcell_routing_0.top_dcell_bias_0/top_digital_cell_0.VBNLV top_DAC_0/top_rseg_n_dcell_0.top_dcell_routing_0.top_dcell_bias_0/top_digital_cell_0.seg_selector_lvsf_0/lvsf_inv_3/sky130_fd_sc_hvl__inv_1_1.A GND sky130_fd_pr__nfet_g5v0d10v5 ad=0.29 pd=2.58 as=0.29 ps=2.58 w=1 l=1
X11 top_DAC_0/top_buffer_opamp_0.opa_input_and_self_bias_0/opa_input_stage_0/cm_tail_0/cm_ncell1_0.to4 top_DAC_0/top_buffer_opamp_0.opa_input_and_self_bias_0/opa_input_stage_0/cm_tail_0/cm_ncell1_0.G1 GND GND sky130_fd_pr__nfet_g5v0d10v5 ad=0.174 pd=1.78 as=0.174 ps=1.78 w=0.6 l=1
X12 a_44234_17252# top_DAC_0/top_rseg_n_dcell_0.top_dcell_routing_0.top_dcell_bias_0/top_digital_cell_0.lvsf_7bit_0/lvsf_buff_7/lvsf_0.IN GND GND sky130_fd_pr__nfet_01v8 ad=0.87 pd=6.58 as=0.435 ps=3.29 w=3 l=0.15
X13 top_DAC_0/top_buffer_opamp_0.opa_input_and_self_bias_0/opa_input_stage_0/cm_head_0/cm_pcell1_0.io1 top_DAC_0/top_buffer_opamp_0.opa_input_and_self_bias_0/opa_input_stage_0/cm_head_0/cm_pcell1_0.G1 VDDH VDDH sky130_fd_pr__pfet_g5v0d10v5 ad=0.522 pd=4.18 as=0.522 ps=4.18 w=1.8 l=1
X14 GND top_DAC_0/top_rseg_n_dcell_0.top_dcell_routing_0.top_dcell_bias_0/top_digital_cell_0.lvsf_7bit_0/lvsf_buff_2/lvsf_0.INB top_DAC_0/top_rseg_n_dcell_0.top_dcell_routing_0.top_dcell_bias_0/top_digital_cell_0.lvsf_7bit_0/lvsf_buff_2/lvsf_0.IN GND sky130_fd_pr__nfet_01v8 ad=0.169 pd=1.82 as=0.08775 ps=0.92 w=0.65 l=0.15
X15 a_45023_21964# top_DAC_0/top_rseg_n_dcell_0.top_dcell_routing_0.top_dcell_bias_0/top_digital_cell_0.decoder_3_0/decoder_2to4_2.b[1] GND GND sky130_fd_pr__nfet_01v8 ad=0.08775 pd=0.92 as=0.169 ps=1.82 w=0.65 l=0.15
X16 GND GND GND GND sky130_fd_pr__nfet_g5v0d10v5 ad=0.174 pd=1.78 as=0 ps=0 w=0.6 l=1
X17 VDDH top_DAC_0/top_buffer_opamp_0.opa_input_and_self_bias_0/opa_input_stage_0/cm_head_0/cm_pcell1_0.G1 top_DAC_0/top_buffer_opamp_0.opa_input_and_self_bias_0/opa_input_stage_0/cm_head_0/cm_pcell1_0.ho3 VDDH sky130_fd_pr__pfet_g5v0d10v5 ad=0.522 pd=4.18 as=0.522 ps=4.18 w=1.8 l=1
X18 top_DAC_0/top_rseg_n_dcell_0.top_dcell_routing_0.top_dcell_bias_0/top_digital_cell_0.dcell_lv_0.seg_selector_logic_0.x1/x3.A top_DAC_0/top_rseg_n_dcell_0.top_dcell_routing_0.top_dcell_bias_0/top_digital_cell_0.decoder_3_0/decoder_2to4_1.bb[1] a_43167_4358# GND sky130_fd_pr__nfet_01v8 ad=0.169 pd=1.82 as=0.08775 ps=0.92 w=0.65 l=0.15
X19 top_DAC_0/top_buffer_opamp_0.opa_input_and_self_bias_0/opa_input_stage_0/cm_head_0/cm_pcell1_0.io0 top_DAC_0/top_buffer_opamp_0.opa_input_and_self_bias_0/opa_input_stage_0/cm_head_0/cm_pcell1_0.G1 VDDH VDDH sky130_fd_pr__pfet_g5v0d10v5 ad=0.522 pd=4.18 as=0.522 ps=4.18 w=1.8 l=1
X20 GND top_DAC_0/top_rseg_n_dcell_0.top_dcell_routing_0.top_dcell_bias_0/top_digital_cell_0.lvsf_7bit_0/lvsf_buff_7/lvsf_0.INB top_DAC_0/top_rseg_n_dcell_0.top_dcell_routing_0.top_dcell_bias_0/top_digital_cell_0.lvsf_7bit_0/lvsf_buff_7/lvsf_0.IN GND sky130_fd_pr__nfet_01v8 ad=0.169 pd=1.82 as=0.08775 ps=0.92 w=0.65 l=0.15
X21 top_DAC_0/top_rseg_n_dcell_0.top_segment_4_1.rseg_4_routing_0/rseg_4_v3_0.v23 top_DAC_0/top_rseg_n_dcell_0.top_segment_4_1.rseg_4_routing_0/rseg_4_v3_0.v22 GND sky130_fd_pr__res_xhigh_po_1p41 l=0.76
X22 VDDH top_DAC_0/top_buffer_opamp_0.opa_input_and_self_bias_0/opa_input_stage_0/cm_head_0/cm_pcell1_0.G1 top_DAC_0/top_buffer_opamp_0.opa_input_and_self_bias_0/opa_input_stage_0/cm_head_0/cm_pcell1_0.io0 VDDH sky130_fd_pr__pfet_g5v0d10v5 ad=0.522 pd=4.18 as=0.522 ps=4.18 w=1.8 l=1
X23 VDD top_DAC_0/top_rseg_n_dcell_0.top_dcell_routing_0.top_dcell_bias_0/top_digital_cell_0.lvsf_7bit_0/lvsf_buff_3/lvsf_0.INB top_DAC_0/top_rseg_n_dcell_0.top_dcell_routing_0.top_dcell_bias_0/top_digital_cell_0.lvsf_7bit_0/lvsf_buff_3/lvsf_0.IN VDD sky130_fd_pr__pfet_01v8_hvt ad=0.26 pd=2.52 as=0.135 ps=1.27 w=1 l=0.15
X24 a_14615_13536# top_DAC_0/top_rseg_n_dcell_0.top_segment_4_1.b0 top_DAC_0/top_rseg_n_dcell_0.VH2 GND sky130_fd_pr__nfet_g5v0d10v5 ad=0.0609 pd=0.71 as=0.1218 ps=1.42 w=0.42 l=0.5
X25 a_20656_10031# top_DAC_0/top_rseg_n_dcell_0.top_segment_4_1.bb2 a_19946_8950# VDDH sky130_fd_pr__pfet_g5v0d10v5 ad=0.1218 pd=1.42 as=0.1218 ps=1.42 w=0.42 l=0.5
X26 a_43698_8776# top_DAC_0/top_rseg_n_dcell_0.top_dcell_routing_0.top_dcell_bias_0/top_digital_cell_0.seg_selector_lvsf_0/lvsf_inv_2/sky130_fd_sc_hvl__inv_1_1.A a_43724_9372# VDDH sky130_fd_pr__pfet_g5v0d10v5 ad=0.29 pd=2.58 as=0.145 ps=1.29 w=1 l=0.8
X27 a_23307_20174# top_DAC_0/top_rseg_n_dcell_0.top_segment_2_0.DEC1[1] a_22193_18133# GND sky130_fd_pr__nfet_g5v0d10v5 ad=0.1218 pd=1.42 as=0.1218 ps=1.42 w=0.42 l=0.5
X28 a_14948_18696# top_DAC_0/top_rseg_n_dcell_0.top_segment_3_0.bb[5] a_14790_18696# VDDH sky130_fd_pr__pfet_g5v0d10v5 ad=0.1218 pd=1.42 as=0.1218 ps=1.42 w=0.42 l=0.5
X29 top_DAC_0/top_buffer_opamp_0.opa_input_and_self_bias_0/opa_input_stage_0/opa_diffpairs_0/dp_nmos_top_0/dp_nmos_5.I_ONA VOUT sky130_fd_pr__cap_mim_m3_1 l=2 w=2
X30 top_DAC_0/top_rseg_n_dcell_0.top_dcell_routing_0.top_dcell_bias_0/top_digital_cell_0.dcell_lv_0.seg_selector_logic_0.x4/x3.A top_DAC_0/top_rseg_n_dcell_0.top_dcell_routing_0.top_dcell_bias_0/top_digital_cell_0.dcell_lv_0.b[8] a_43167_3162# GND sky130_fd_pr__nfet_01v8 ad=0.169 pd=1.82 as=0.08775 ps=0.92 w=0.65 l=0.15
X31 top_DAC_0/top_rseg_n_dcell_0.top_dcell_routing_0.top_dcell_bias_0/top_digital_cell_0.lvsf_7bit_0/lvsf_buff_3/lvsf_0.INB DIN2 VDD VDD sky130_fd_pr__pfet_01v8_hvt ad=0.135 pd=1.27 as=0.26 ps=2.52 w=1 l=0.15
X32 GND GND sky130_fd_pr__cap_mim_m3_1 l=2 w=2
X33 top_DAC_0/top_buffer_opamp_0.opa_folded_cascode_0.monticelli_top_0.A top_DAC_0/top_buffer_opamp_0.opa_input_and_self_bias_0/cm_pcell3_0.VB2 top_DAC_0/top_buffer_opamp_0.opa_input_and_self_bias_0/opa_input_stage_0/opa_diffpairs_0/dp_nmos_top_0/dp_nmos_5.I_ONA VDDH sky130_fd_pr__pfet_g5v0d10v5 ad=1.392 pd=10.18 as=1.392 ps=10.18 w=4.8 l=1
X34 top_DAC_0/top_rseg_n_dcell_0.top_segment_1_0.rseg_1_v3_1.v21 top_DAC_0/top_rseg_n_dcell_0.top_segment_1_0.rseg_1_v3_1.v20 GND sky130_fd_pr__res_xhigh_po_1p41 l=1.37
X35 top_DAC_0/top_rseg_n_dcell_0.top_segment_4_1.rseg_4_routing_0/rseg_4_v3_0.v3 top_DAC_0/top_rseg_n_dcell_0.top_segment_4_1.rseg_4_routing_0/rseg_4_v3_0.v4 GND sky130_fd_pr__res_xhigh_po_1p41 l=0.55
X36 top_DAC_0/top_rseg_n_dcell_0.top_segment_2_0.DEC1[3] top_DAC_0/top_rseg_n_dcell_0.top_segment_2_0.DEC1[2] a_43240_20580# VDDH sky130_fd_pr__pfet_g5v0d10v5 ad=0.2436 pd=2.26 as=0.1218 ps=1.13 w=0.84 l=1
X37 top_DAC_0/top_rseg_n_dcell_0.top_segment_2_0.rseg_2_v3_0.v36 top_DAC_0/top_rseg_n_dcell_0.top_segment_2_0.DEC0[2] a_23307_20174# GND sky130_fd_pr__nfet_g5v0d10v5 ad=0.1218 pd=1.42 as=0.1218 ps=1.42 w=0.42 l=0.5
X38 GND GND GND sky130_fd_pr__res_xhigh_po_1p41 l=11.57
X39 GND top_DAC_0/top_buffer_opamp_0.opa_input_and_self_bias_0/opa_input_stage_0/cm_tail_0/cm_ncell1_0.G1 top_DAC_0/top_buffer_opamp_0.opa_input_and_self_bias_0/opa_input_stage_0/cm_tail_0/cm_ncell1_0.io0 GND sky130_fd_pr__nfet_g5v0d10v5 ad=0.174 pd=1.78 as=0.174 ps=1.78 w=0.6 l=1
X40 a_6923_9707# VOUT top_DAC_0/top_buffer_opamp_0.opa_input_and_self_bias_0/opa_input_stage_0/opa_diffpairs_0/dp_nmos_top_0/dp_nmos_5.I_ONB GND sky130_fd_pr__nfet_g5v0d10v5 ad=0.145 pd=1.29 as=0.145 ps=1.29 w=1 l=1
X41 VDDH top_DAC_0/top_rseg_n_dcell_0.top_dcell_routing_0.top_dcell_bias_0/top_digital_cell_0.VBPLV a_43724_8936# VDDH sky130_fd_pr__pfet_g5v0d10v5 ad=0.145 pd=1.29 as=0.145 ps=1.29 w=1 l=0.8
X42 a_18284_18696# top_DAC_0/top_rseg_n_dcell_0.top_segment_3_0.bb[4] a_15618_18696# VDDH sky130_fd_pr__pfet_g5v0d10v5 ad=0.1218 pd=1.42 as=0.1218 ps=1.42 w=0.42 l=0.5
X43 top_DAC_0/top_rseg_n_dcell_0.top_segment_2_0.rseg_2_v3_0.v34 top_DAC_0/top_rseg_n_dcell_0.top_segment_2_0.rseg_2_v3_0.v33 GND sky130_fd_pr__res_xhigh_po_1p41 l=4.76
X44 a_31042_7686# top_DAC_0/top_rseg_n_dcell_0.top_segment_2_0.DEC2[1] top_DAC_0/top_rseg_n_dcell_0.top_segment_1_0.rseg_1_v3_1.v28 GND sky130_fd_pr__nfet_g5v0d10v5 ad=0.1218 pd=1.42 as=0.1218 ps=1.42 w=0.42 l=0.5
X45 a_36888_19550# a_36888_19786# GND GND sky130_fd_pr__nfet_g5v0d10v5 ad=0.174 pd=1.78 as=0.174 ps=1.78 w=0.6 l=1
X46 top_DAC_0/top_rseg_n_dcell_0.top_dcell_routing_0.top_dcell_bias_0/top_digital_cell_0.dcell_lv_0.logic_shift_seg2_0.x4.A top_DAC_0/top_rseg_n_dcell_0.top_dcell_routing_0.top_dcell_bias_0/top_digital_cell_0.dcell_lv_0.b[8] VDD VDD sky130_fd_pr__pfet_01v8_hvt ad=0.135 pd=1.27 as=0.26 ps=2.52 w=1 l=0.15
X47 top_DAC_0/top_rseg_n_dcell_0.top_segment_2_0.rseg_2_v3_0.v32 top_DAC_0/top_rseg_n_dcell_0.top_segment_2_0.rseg_2_v3_0.v31 GND sky130_fd_pr__res_xhigh_po_1p41 l=4.71
X48 top_DAC_0/top_rseg_n_dcell_0.top_segment_2_0.rseg_2_v3_0.v23 top_DAC_0/top_rseg_n_dcell_0.top_segment_2_0.DEC0[1] a_24963_20174# GND sky130_fd_pr__nfet_g5v0d10v5 ad=0.1218 pd=1.42 as=0.1218 ps=1.42 w=0.42 l=0.5
X49 top_DAC_0/top_buffer_opamp_0.opa_input_and_self_bias_0/opa_input_stage_0/opa_diffpairs_0/dp_nmos_top_0/dp_nmos_5.I_ONA top_DAC_0/top_final_switch_0.VOUT[0] a_5050_12595# GND sky130_fd_pr__nfet_g5v0d10v5 ad=0.29 pd=2.58 as=0.145 ps=1.29 w=1 l=1
X50 a_43698_14716# top_DAC_0/top_rseg_n_dcell_0.top_dcell_routing_0.top_dcell_bias_0/top_digital_cell_0.lvsf_7bit_0/lvsf_buff_5/lvsf_0.OUTP a_43724_15312# VDDH sky130_fd_pr__pfet_g5v0d10v5 ad=0.29 pd=2.58 as=0.145 ps=1.29 w=1 l=0.8
X51 top_DAC_0/top_rseg_n_dcell_0.top_segment_1_0.rseg_1_v3_1.v11 top_DAC_0/top_rseg_n_dcell_0.top_segment_1_0.rseg_1_v3_1.v12 GND sky130_fd_pr__res_xhigh_po_1p41 l=1.99
X52 VDDH top_DAC_0/top_buffer_opamp_0.opa_input_and_self_bias_0/opa_input_stage_0/cm_head_0/cm_pcell1_0.G1 top_DAC_0/top_buffer_opamp_0.opa_input_and_self_bias_0/opa_input_stage_0/cm_head_0/cm_pcell1_0.ho3 VDDH sky130_fd_pr__pfet_g5v0d10v5 ad=0.522 pd=4.18 as=0.522 ps=4.18 w=1.8 l=1
X53 a_6923_9707# top_DAC_0/top_final_switch_0.VOUT[4] top_DAC_0/top_buffer_opamp_0.opa_input_and_self_bias_0/opa_input_stage_0/opa_diffpairs_0/dp_nmos_top_0/dp_nmos_5.I_ONA GND sky130_fd_pr__nfet_g5v0d10v5 ad=0.145 pd=1.29 as=0.145 ps=1.29 w=1 l=1
X54 top_DAC_0/top_buffer_opamp_0.opa_input_and_self_bias_0/opa_input_stage_0/cm_tail_0/cm_ncell1_0.io0 top_DAC_0/top_buffer_opamp_0.opa_input_and_self_bias_0/opa_input_stage_0/cm_tail_0/cm_ncell1_0.G1 GND GND sky130_fd_pr__nfet_g5v0d10v5 ad=0.174 pd=1.78 as=0.174 ps=1.78 w=0.6 l=1
X55 top_DAC_0/top_rseg_n_dcell_0.top_segment_2_0.rseg_2_v3_0.v45 top_DAC_0/top_rseg_n_dcell_0.top_segment_2_0.DEC0[2] a_21927_20174# GND sky130_fd_pr__nfet_g5v0d10v5 ad=0.1218 pd=1.42 as=0.1218 ps=1.42 w=0.42 l=0.5
X56 VDDH top_DAC_0/top_buffer_opamp_0.opa_input_and_self_bias_0/opa_input_stage_0/cm_head_0/cm_pcell1_0.G1 top_DAC_0/top_buffer_opamp_0.opa_input_and_self_bias_0/opa_input_stage_0/cm_head_0/cm_pcell1_0.ho2 VDDH sky130_fd_pr__pfet_g5v0d10v5 ad=0.522 pd=4.18 as=0.522 ps=4.18 w=1.8 l=1
X57 top_DAC_0/top_rseg_n_dcell_0.top_segment_1_0.rseg_1_v3_1.v56 top_DAC_0/top_rseg_n_dcell_0.top_segment_2_0.DEC2[3] a_29780_7686# GND sky130_fd_pr__nfet_g5v0d10v5 ad=0.1218 pd=1.42 as=0.1218 ps=1.42 w=0.42 l=0.5
X58 a_31870_7686# top_DAC_0/top_rseg_n_dcell_0.top_segment_2_0.DEC2[1] top_DAC_0/top_rseg_n_dcell_0.top_segment_1_0.rseg_1_v3_1.v31 GND sky130_fd_pr__nfet_g5v0d10v5 ad=0.1218 pd=1.42 as=0.1218 ps=1.42 w=0.42 l=0.5
X59 top_DAC_0/top_final_switch_0.VOUT[1] top_DAC_0/top_rseg_n_dcell_0.SH[3] top_DAC_0/top_rseg_n_dcell_0.VL3 VDDH sky130_fd_pr__pfet_g5v0d10v5 ad=0.0609 pd=0.71 as=0.1218 ps=1.42 w=0.42 l=0.5
X60 top_DAC_0/top_rseg_n_dcell_0.top_segment_1_0.rseg_1_v3_1.v39 top_DAC_0/top_rseg_n_dcell_0.top_segment_1_0.rseg_1_v3_1.v38 GND sky130_fd_pr__res_xhigh_po_1p41 l=0.91
X61 VDD top_DAC_0/top_rseg_n_dcell_0.top_dcell_routing_0.top_dcell_bias_0/top_digital_cell_0.decoder_3_0/decoder_2to4_1.bb[1] top_DAC_0/top_rseg_n_dcell_0.top_dcell_routing_0.top_dcell_bias_0/top_digital_cell_0.dcell_lv_0.seg_selector_logic_0.x3/x3.B VDD sky130_fd_pr__pfet_01v8_hvt ad=0.3 pd=2.6 as=0.165 ps=1.33 w=1 l=0.15
X62 top_DAC_0/top_buffer_opamp_0.opa_input_and_self_bias_0/opa_input_stage_0/cm_head_0/cm_pcell1_0.ho1 top_DAC_0/top_buffer_opamp_0.opa_input_and_self_bias_0/opa_input_stage_0/cm_head_0/cm_pcell1_0.G1 VDDH VDDH sky130_fd_pr__pfet_g5v0d10v5 ad=0.522 pd=4.18 as=0.522 ps=4.18 w=1.8 l=1
X63 top_DAC_0/top_rseg_n_dcell_0.top_dcell_routing_0.top_dcell_bias_0/top_digital_cell_0.seg_selector_lvsf_0/lvsf_inv_1/lvsf_0.INB top_DAC_0/top_rseg_n_dcell_0.top_dcell_routing_0.top_dcell_bias_0/top_digital_cell_0.dcell_lv_0.seg_selector_logic_0.x2/x4.A a_44255_4614# GND sky130_fd_pr__nfet_01v8 ad=0.195 pd=1.9 as=0.10725 ps=0.98 w=0.65 l=0.15
X64 a_23629_18133# top_DAC_0/top_rseg_n_dcell_0.top_segment_2_0.DEC2[1] top_DAC_0/top_rseg_n_dcell_0.VL2 GND sky130_fd_pr__nfet_g5v0d10v5 ad=0.1218 pd=1.42 as=0.1218 ps=1.42 w=0.42 l=0.5
X65 top_DAC_0/top_rseg_n_dcell_0.top_segment_1_0.rseg_1_v3_1.v3 top_DAC_0/top_rseg_n_dcell_0.top_segment_1_0.rseg_1_v3_1.v4 GND sky130_fd_pr__res_xhigh_po_1p41 l=3.37
X66 VDD top_DAC_0/top_rseg_n_dcell_0.top_dcell_routing_0.top_dcell_bias_0/top_digital_cell_0.dcell_lv_0.b[8] top_DAC_0/top_rseg_n_dcell_0.top_dcell_routing_0.top_dcell_bias_0/top_digital_cell_0.dcell_lv_0.seg_selector_logic_0.x3/x3.B VDD sky130_fd_pr__pfet_01v8_hvt ad=0.135 pd=1.27 as=0.135 ps=1.27 w=1 l=0.15
X67 top_DAC_0/top_buffer_opamp_0.opa_input_and_self_bias_0/opa_input_stage_0/opa_diffpairs_0/dp_nmos_top_0/dp_nmos_5.I_ONB VOUT a_5050_12595# GND sky130_fd_pr__nfet_g5v0d10v5 ad=0.29 pd=2.58 as=0.145 ps=1.29 w=1 l=1
X68 top_DAC_0/top_buffer_opamp_0.opa_input_and_self_bias_0/cm_ncell3_0.VTAIL2 top_DAC_0/top_buffer_opamp_0.opa_input_and_self_bias_0/cm_ncell3_0.DRAIN top_DAC_0/top_buffer_opamp_0.opa_input_and_self_bias_0/cm_ncell3_0.DRAIN GND sky130_fd_pr__nfet_g5v0d10v5 ad=0.087 pd=0.89 as=0.174 ps=1.78 w=0.6 l=20
X69 a_14615_14034# top_DAC_0/top_rseg_n_dcell_0.SH[2] top_DAC_0/top_final_switch_0.VOUT[3] GND sky130_fd_pr__nfet_g5v0d10v5 ad=0.1218 pd=1.42 as=0.0609 ps=0.71 w=0.42 l=0.5
X70 a_20932_10031# top_DAC_0/top_rseg_n_dcell_0.top_segment_4_1.b2 a_18724_8950# VDDH sky130_fd_pr__pfet_g5v0d10v5 ad=0.1218 pd=1.42 as=0.1218 ps=1.42 w=0.42 l=0.5
X71 top_DAC_0/top_rseg_n_dcell_0.top_dcell_routing_0.top_dcell_bias_0/top_digital_cell_0.decoder_3_0/dec_2_0/decoder_2to4_0.dec_logic_0/sky130_fd_sc_hd__nand2_1_2.Y top_DAC_0/top_rseg_n_dcell_0.top_dcell_routing_0.top_dcell_bias_0/top_digital_cell_0.lvsf_7bit_0/lvsf_buff_4/lvsf_0.IN a_45023_18840# GND sky130_fd_pr__nfet_01v8 ad=0.169 pd=1.82 as=0.08775 ps=0.92 w=0.65 l=0.15
X72 a_24135_20174# top_DAC_0/top_rseg_n_dcell_0.top_segment_2_0.DEC1[1] a_23629_18133# GND sky130_fd_pr__nfet_g5v0d10v5 ad=0.1218 pd=1.42 as=0.1218 ps=1.42 w=0.42 l=0.5
X73 a_15098_19866# top_DAC_0/top_rseg_n_dcell_0.top_segment_3_0.bb[5] a_15618_18696# VDDH sky130_fd_pr__pfet_g5v0d10v5 ad=0.1218 pd=1.42 as=0.1218 ps=1.42 w=0.42 l=0.5
X74 a_43167_4358# top_DAC_0/top_rseg_n_dcell_0.top_dcell_routing_0.top_dcell_bias_0/top_digital_cell_0.lvsf_7bit_0/lvsf_buff_7/lvsf_0.INB GND GND sky130_fd_pr__nfet_01v8 ad=0.08775 pd=0.92 as=0.169 ps=1.82 w=0.65 l=0.15
X75 top_DAC_0/top_rseg_n_dcell_0.top_segment_2_0.rseg_2_v3_0.v22 top_DAC_0/top_rseg_n_dcell_0.top_segment_2_0.rseg_2_v3_0.v21 GND sky130_fd_pr__res_xhigh_po_1p41 l=4.81
X76 VDDH VDDH VDDH VDDH sky130_fd_pr__pfet_g5v0d10v5 ad=0.522 pd=4.18 as=124.854 ps=1.00292k w=1.8 l=1
X77 top_DAC_0/top_rseg_n_dcell_0.top_dcell_routing_0.top_dcell_bias_0/top_digital_cell_0.dcell_lv_0.seg_selector_logic_0.x3/x3.A top_DAC_0/top_rseg_n_dcell_0.top_dcell_routing_0.top_dcell_bias_0/top_digital_cell_0.dcell_lv_0.b[9] a_43391_3326# GND sky130_fd_pr__nfet_01v8 ad=0.195 pd=1.9 as=0.10725 ps=0.98 w=0.65 l=0.15
X78 top_DAC_0/top_buffer_opamp_0.opa_input_and_self_bias_0/cm_ncell3_0.DRAIN top_DAC_0/top_buffer_opamp_0.opa_input_and_self_bias_0/cm_pcell3_0.VB2 top_DAC_0/top_buffer_opamp_0.opa_input_and_self_bias_0/opa_input_stage_0/cm_head_0/cm_pcell1_0.io1 VDDH sky130_fd_pr__pfet_g5v0d10v5 ad=0.522 pd=4.18 as=0.522 ps=4.18 w=1.8 l=1
X79 VDDH VDDH VDDH VDDH sky130_fd_pr__pfet_g5v0d10v5 ad=0.522 pd=4.18 as=0 ps=0 w=1.8 l=1
X80 GND top_DAC_0/top_buffer_opamp_0.opa_input_and_self_bias_0/opa_input_stage_0/cm_tail_0/cm_ncell1_0.G1 top_DAC_0/top_buffer_opamp_0.opa_input_and_self_bias_0/opa_input_stage_0/cm_tail_0/cm_ncell1_0.to1 GND sky130_fd_pr__nfet_g5v0d10v5 ad=0.174 pd=1.78 as=0.174 ps=1.78 w=0.6 l=1
X81 a_42982_21320# top_DAC_0/top_rseg_n_dcell_0.top_segment_2_0.DEC0[0] a_42724_21320# VDDH sky130_fd_pr__pfet_g5v0d10v5 ad=0.1218 pd=1.13 as=0.1218 ps=1.13 w=0.84 l=1
X82 top_DAC_0/top_buffer_opamp_0.opa_input_and_self_bias_0/opa_input_stage_0/cm_head_0/cm_pcell1_0.ho4 top_DAC_0/top_buffer_opamp_0.opa_input_and_self_bias_0/opa_input_stage_0/cm_head_0/cm_pcell1_0.G1 VDDH VDDH sky130_fd_pr__pfet_g5v0d10v5 ad=0.522 pd=4.18 as=0.522 ps=4.18 w=1.8 l=1
X83 top_DAC_0/top_rseg_n_dcell_0.top_segment_2_0.rseg_2_v3_0.v33 top_DAC_0/top_rseg_n_dcell_0.top_segment_2_0.DEC0[2] a_24135_20174# GND sky130_fd_pr__nfet_g5v0d10v5 ad=0.1218 pd=1.42 as=0.1218 ps=1.42 w=0.42 l=0.5
X84 top_DAC_0/top_rseg_n_dcell_0.top_segment_4_1.bb1 top_DAC_0/top_rseg_n_dcell_0.top_dcell_routing_0.top_dcell_bias_0/top_digital_cell_0.lvsf_7bit_0/lvsf_buff_1/lvsf_0.OUTP GND GND sky130_fd_pr__nfet_g5v0d10v5 ad=0.21375 pd=2.07 as=0.21375 ps=2.07 w=0.75 l=0.5
X85 top_DAC_0/top_rseg_n_dcell_0.top_dcell_routing_0.top_dcell_bias_0/top_digital_cell_0.lvsf_7bit_0/lvsf_buff_3/lvsf_0.IN top_DAC_0/top_rseg_n_dcell_0.top_dcell_routing_0.top_dcell_bias_0/top_digital_cell_0.lvsf_7bit_0/lvsf_buff_3/lvsf_0.INB VDD VDD sky130_fd_pr__pfet_01v8_hvt ad=0.135 pd=1.27 as=0.26 ps=2.52 w=1 l=0.15
X86 VDDH VDDH VDDH VDDH sky130_fd_pr__pfet_g5v0d10v5 ad=0.522 pd=4.18 as=0 ps=0 w=1.8 l=1
X87 VDDH top_DAC_0/top_buffer_opamp_0.opa_input_and_self_bias_0/opa_input_stage_0/cm_head_0/cm_pcell1_0.G1 top_DAC_0/top_buffer_opamp_0.opa_input_and_self_bias_0/opa_input_stage_0/cm_head_0/cm_pcell1_0.io1 VDDH sky130_fd_pr__pfet_g5v0d10v5 ad=0.522 pd=4.18 as=0.522 ps=4.18 w=1.8 l=1
X88 GND GND GND GND sky130_fd_pr__nfet_g5v0d10v5 ad=0.174 pd=1.78 as=0 ps=0 w=0.6 l=1
X89 top_DAC_0/top_buffer_opamp_0.opa_folded_cascode_0.monticelli_top_0.B top_DAC_0/top_buffer_opamp_0.opa_input_and_self_bias_0/cm_ncell3_0.VTAIL2 top_DAC_0/top_buffer_opamp_0.opa_input_and_self_bias_0/opa_input_stage_0/opa_diffpairs_0/dp_pmos_top_0/dp_pmos_5.I_OPA GND sky130_fd_pr__nfet_g5v0d10v5 ad=0.464 pd=3.78 as=0.464 ps=3.78 w=1.6 l=1
X90 VDDH top_DAC_0/top_buffer_opamp_0.opa_input_and_self_bias_0/opa_input_stage_0/cm_head_0/cm_pcell1_0.G1 top_DAC_0/top_buffer_opamp_0.opa_input_and_self_bias_0/opa_input_stage_0/cm_head_0/cm_pcell1_0.io1 VDDH sky130_fd_pr__pfet_g5v0d10v5 ad=0.522 pd=4.18 as=0.522 ps=4.18 w=1.8 l=1
X91 top_DAC_0/top_rseg_n_dcell_0.top_dcell_routing_0.top_dcell_bias_0/top_digital_cell_0.lvsf_7bit_0/lvsf_buff_4/lvsf_0.IN top_DAC_0/top_rseg_n_dcell_0.top_dcell_routing_0.top_dcell_bias_0/top_digital_cell_0.lvsf_7bit_0/lvsf_buff_4/lvsf_0.INB VDD VDD sky130_fd_pr__pfet_01v8_hvt ad=0.135 pd=1.27 as=0.26 ps=2.52 w=1 l=0.15
X92 top_DAC_0/top_buffer_opamp_0.opa_input_and_self_bias_0/opa_input_stage_0/cm_tail_0/cm_ncell1_0.to2 top_DAC_0/top_buffer_opamp_0.opa_input_and_self_bias_0/opa_input_stage_0/cm_tail_0/cm_ncell1_0.G1 GND GND sky130_fd_pr__nfet_g5v0d10v5 ad=0.174 pd=1.78 as=0.174 ps=1.78 w=0.6 l=1
X93 top_DAC_0/top_buffer_opamp_0.opa_input_and_self_bias_0/opa_input_stage_0/cm_head_0/cm_pcell1_0.io0 top_DAC_0/top_buffer_opamp_0.opa_input_and_self_bias_0/cm_pcell3_0.VB2 top_DAC_0/top_buffer_opamp_0.opa_input_and_self_bias_0/opa_input_stage_0/cm_head_0/cm_pcell1_0.G1 VDDH sky130_fd_pr__pfet_g5v0d10v5 ad=0.522 pd=4.18 as=0.522 ps=4.18 w=1.8 l=1
X94 top_DAC_0/top_rseg_n_dcell_0.top_segment_1_0.rseg_1_v3_1.v59 top_DAC_0/top_rseg_n_dcell_0.top_segment_1_0.rseg_1_v3_1.v60 GND sky130_fd_pr__res_xhigh_po_1p41 l=0.66
X95 a_15224_18696# top_DAC_0/top_rseg_n_dcell_0.top_segment_3_0.bb[6] top_DAC_0/top_rseg_n_dcell_0.top_segment_3_0.rseg_3_v3_0.v6 VDDH sky130_fd_pr__pfet_g5v0d10v5 ad=0.1218 pd=1.42 as=0.1218 ps=1.42 w=0.42 l=0.5
X96 top_DAC_0/top_rseg_n_dcell_0.top_dcell_routing_0.top_dcell_bias_0/top_digital_cell_0.lvsf_7bit_0/lvsf_buff_1/lvsf_0.INB DIN1 VDD VDD sky130_fd_pr__pfet_01v8_hvt ad=0.135 pd=1.27 as=0.26 ps=2.52 w=1 l=0.15
X97 top_DAC_0/top_buffer_opamp_0.opa_input_and_self_bias_0/opa_input_stage_0/opa_diffpairs_0/dp_pmos_top_0/dp_pmos_5.I_OPA VOUT sky130_fd_pr__cap_mim_m3_1 l=2 w=2
X98 a_44234_11946# top_DAC_0/top_rseg_n_dcell_0.top_dcell_routing_0.top_dcell_bias_0/top_digital_cell_0.VBNLV top_DAC_0/top_rseg_n_dcell_0.top_dcell_routing_0.top_dcell_bias_0/top_digital_cell_0.lvsf_7bit_0/lvsf_buff_1/lvsf_0.OUTP GND sky130_fd_pr__nfet_g5v0d10v5 ad=0.29 pd=2.58 as=0.29 ps=2.58 w=1 l=1
X99 GND GND sky130_fd_pr__cap_mim_m3_1 l=2 w=2
X100 GND DIN2 top_DAC_0/top_rseg_n_dcell_0.top_dcell_routing_0.top_dcell_bias_0/top_digital_cell_0.lvsf_7bit_0/lvsf_buff_3/lvsf_0.INB GND sky130_fd_pr__nfet_01v8 ad=0.169 pd=1.82 as=0.08775 ps=0.92 w=0.65 l=0.15
X101 top_DAC_0/top_rseg_n_dcell_0.top_segment_4_1.rseg_4_routing_0/rseg_4_v3_0.v27 top_DAC_0/top_rseg_n_dcell_0.top_segment_4_1.rseg_4_routing_0/rseg_4_v3_0.v26 GND sky130_fd_pr__res_xhigh_po_1p41 l=0.76
X102 top_DAC_0/top_rseg_n_dcell_0.top_segment_4_1.rseg_4_routing_0/rseg_4_v3_0.v57 top_DAC_0/top_rseg_n_dcell_0.top_segment_4_1.DEC3 a_15629_7686# VDDH sky130_fd_pr__pfet_g5v0d10v5 ad=0.1218 pd=1.42 as=0.1218 ps=1.42 w=0.42 l=0.5
X103 a_31594_7686# top_DAC_0/top_rseg_n_dcell_0.top_segment_2_0.DEC2[1] top_DAC_0/top_rseg_n_dcell_0.top_segment_1_0.rseg_1_v3_1.v30 GND sky130_fd_pr__nfet_g5v0d10v5 ad=0.1218 pd=1.42 as=0.1218 ps=1.42 w=0.42 l=0.5
X104 top_DAC_0/top_rseg_n_dcell_0.top_segment_2_0.rseg_2_v3_0.v46 top_DAC_0/top_rseg_n_dcell_0.top_segment_2_0.rseg_2_v3_0.v47 GND sky130_fd_pr__res_xhigh_po_1p41 l=6.09
X105 top_DAC_0/top_rseg_n_dcell_0.top_dcell_routing_0.top_dcell_bias_0/top_digital_cell_0.dcell_lv_0.seg_selector_logic_0.x2/x4.B top_DAC_0/top_rseg_n_dcell_0.top_dcell_routing_0.top_dcell_bias_0/top_digital_cell_0.dcell_lv_0.bb[9] a_44255_3438# GND sky130_fd_pr__nfet_01v8 ad=0.169 pd=1.82 as=0.08775 ps=0.92 w=0.65 l=0.15
X106 top_DAC_0/top_rseg_n_dcell_0.top_dcell_routing_0.top_dcell_bias_0/top_digital_cell_0.dcell_lv_0.logic_shift_seg2_0.x4.A top_DAC_0/top_rseg_n_dcell_0.top_dcell_routing_0.top_dcell_bias_0/top_digital_cell_0.dcell_lv_0.b[9] a_44479_3254# GND sky130_fd_pr__nfet_01v8 ad=0.169 pd=1.82 as=0.08775 ps=0.92 w=0.65 l=0.15
X107 a_43698_9766# top_DAC_0/top_rseg_n_dcell_0.top_dcell_routing_0.top_dcell_bias_0/top_digital_cell_0.VBNLV a_44234_10322# GND sky130_fd_pr__nfet_g5v0d10v5 ad=0.29 pd=2.58 as=0.29 ps=2.58 w=1 l=1
X108 a_14514_18696# top_DAC_0/top_rseg_n_dcell_0.top_segment_3_0.b[5] a_17148_18696# VDDH sky130_fd_pr__pfet_g5v0d10v5 ad=0.1218 pd=1.42 as=0.1218 ps=1.42 w=0.42 l=0.5
X109 top_DAC_0/top_rseg_n_dcell_0.top_segment_3_0.rseg_3_v3_0.v14 top_DAC_0/top_rseg_n_dcell_0.top_segment_3_0.rseg_3_v3_0.v15 GND sky130_fd_pr__res_xhigh_po_1p41 l=5.12
X110 GND DIN5 top_DAC_0/top_rseg_n_dcell_0.top_dcell_routing_0.top_dcell_bias_0/top_digital_cell_0.lvsf_7bit_0/lvsf_buff_4/lvsf_0.INB GND sky130_fd_pr__nfet_01v8 ad=0.169 pd=1.82 as=0.08775 ps=0.92 w=0.65 l=0.15
X111 top_DAC_0/top_buffer_opamp_0.opa_input_and_self_bias_0/opa_input_stage_0/cm_head_0/cm_pcell1_0.ho4 top_DAC_0/top_buffer_opamp_0.opa_input_and_self_bias_0/opa_input_stage_0/cm_head_0/cm_pcell1_0.G1 VDDH VDDH sky130_fd_pr__pfet_g5v0d10v5 ad=0.522 pd=4.18 as=0.522 ps=4.18 w=1.8 l=1
X112 top_DAC_0/top_rseg_n_dcell_0.VL2 top_DAC_0/top_rseg_n_dcell_0.top_segment_4_1.bb2 a_14615_14034# GND sky130_fd_pr__nfet_g5v0d10v5 ad=0.1218 pd=1.42 as=0.0609 ps=0.71 w=0.42 l=0.5
X113 top_DAC_0/top_buffer_opamp_0.opa_input_and_self_bias_0/opa_input_stage_0/cm_head_0/cm_pcell1_0.io1 top_DAC_0/top_buffer_opamp_0.opa_input_and_self_bias_0/cm_pcell3_0.VB2 top_DAC_0/top_buffer_opamp_0.opa_input_and_self_bias_0/cm_ncell3_0.DRAIN VDDH sky130_fd_pr__pfet_g5v0d10v5 ad=0.522 pd=4.18 as=0.522 ps=4.18 w=1.8 l=1
X114 top_DAC_0/top_rseg_n_dcell_0.top_segment_3_0.rseg_3_v3_0.v12 top_DAC_0/top_rseg_n_dcell_0.top_segment_3_0.rseg_3_v3_0.v11 GND sky130_fd_pr__res_xhigh_po_1p41 l=4.45
X115 VDDH top_DAC_0/top_buffer_opamp_0.opa_input_and_self_bias_0/opa_input_stage_0/cm_head_0/cm_pcell1_0.G1 top_DAC_0/top_buffer_opamp_0.opa_input_and_self_bias_0/opa_input_stage_0/cm_head_0/cm_pcell1_0.io2 VDDH sky130_fd_pr__pfet_g5v0d10v5 ad=0.522 pd=4.18 as=0.522 ps=4.18 w=1.8 l=1
X116 top_DAC_0/top_rseg_n_dcell_0.top_dcell_routing_0.top_dcell_bias_0/top_digital_cell_0.VBNDEC top_DAC_0/top_rseg_n_dcell_0.top_dcell_routing_0.top_dcell_bias_0/top_digital_cell_0.VBNDEC a_38672_20477# GND sky130_fd_pr__nfet_g5v0d10v5 ad=0.174 pd=1.78 as=0.174 ps=1.78 w=0.6 l=1
X117 GND GND GND sky130_fd_pr__res_xhigh_po_1p41 l=0.66
X118 top_DAC_0/top_rseg_n_dcell_0.top_segment_2_0.rseg_2_v3_0.v16 top_DAC_0/top_rseg_n_dcell_0.top_segment_2_0.DEC0[0] a_21375_20174# GND sky130_fd_pr__nfet_g5v0d10v5 ad=0.1218 pd=1.42 as=0.1218 ps=1.42 w=0.42 l=0.5
X119 GND DIN8 top_DAC_0/top_rseg_n_dcell_0.top_dcell_routing_0.top_dcell_bias_0/top_digital_cell_0.dcell_lv_0.bb[8] GND sky130_fd_pr__nfet_01v8 ad=0.169 pd=1.82 as=0.08775 ps=0.92 w=0.65 l=0.15
X120 VDDH top_DAC_0/top_buffer_opamp_0.opa_input_and_self_bias_0/opa_input_stage_0/cm_head_0/cm_pcell1_0.G1 top_DAC_0/top_buffer_opamp_0.opa_input_and_self_bias_0/opa_input_stage_0/cm_head_0/cm_pcell1_0.io2 VDDH sky130_fd_pr__pfet_g5v0d10v5 ad=0.522 pd=4.18 as=0.522 ps=4.18 w=1.8 l=1
X121 top_DAC_0/top_buffer_opamp_0.opa_input_and_self_bias_0/opa_input_stage_0/opa_diffpairs_0/dp_nmos_top_0/dp_nmos_5.I_ONA VOUT sky130_fd_pr__cap_mim_m3_1 l=2 w=2
X122 a_16615_7686# top_DAC_0/top_rseg_n_dcell_0.top_segment_4_1.DEC3 top_DAC_0/top_rseg_n_dcell_0.top_segment_4_1.rseg_4_routing_0/rseg_4_v3_0.v60 VDDH sky130_fd_pr__pfet_g5v0d10v5 ad=0.1218 pd=1.42 as=0.1218 ps=1.42 w=0.42 l=0.5
X123 VDDH top_DAC_0/top_rseg_n_dcell_0.top_dcell_routing_0.top_dcell_bias_0/top_digital_cell_0.VBPLV a_43724_15866# VDDH sky130_fd_pr__pfet_g5v0d10v5 ad=0.145 pd=1.29 as=0.145 ps=1.29 w=1 l=0.8
X124 top_DAC_0/top_buffer_opamp_0.opa_input_and_self_bias_0/opa_input_stage_0/cm_head_0/cm_pcell1_0.io1 top_DAC_0/top_buffer_opamp_0.opa_input_and_self_bias_0/opa_input_stage_0/cm_head_0/cm_pcell1_0.G1 VDDH VDDH sky130_fd_pr__pfet_g5v0d10v5 ad=0.522 pd=4.18 as=0.522 ps=4.18 w=1.8 l=1
X125 top_DAC_0/top_buffer_opamp_0.opa_input_and_self_bias_0/opa_input_stage_0/cm_head_0/cm_pcell1_0.ho4 top_DAC_0/top_buffer_opamp_0.opa_input_and_self_bias_0/opa_input_stage_0/cm_head_0/cm_pcell1_0.G1 VDDH VDDH sky130_fd_pr__pfet_g5v0d10v5 ad=0.522 pd=4.18 as=0.522 ps=4.18 w=1.8 l=1
X126 a_45023_21136# top_DAC_0/top_rseg_n_dcell_0.top_dcell_routing_0.top_dcell_bias_0/top_digital_cell_0.decoder_3_0/decoder_2to4_2.bb[0] GND GND sky130_fd_pr__nfet_01v8 ad=0.08775 pd=0.92 as=0.169 ps=1.82 w=0.65 l=0.15
X127 GND GND sky130_fd_pr__cap_mim_m3_1 l=2 w=2
X128 top_DAC_0/top_rseg_n_dcell_0.top_segment_4_1.b2 top_DAC_0/top_rseg_n_dcell_0.top_segment_4_1.bb2 GND GND sky130_fd_pr__nfet_g5v0d10v5 ad=0.21375 pd=2.07 as=0.21375 ps=2.07 w=0.75 l=0.5
X129 GND GND sky130_fd_pr__cap_mim_m3_1 l=2 w=2
X130 a_33634_8950# top_DAC_0/top_rseg_n_dcell_0.top_segment_4_1.bb3 a_27620_6250# GND sky130_fd_pr__nfet_g5v0d10v5 ad=0.1218 pd=1.42 as=0.1218 ps=1.42 w=0.42 l=0.5
X131 top_DAC_0/top_rseg_n_dcell_0.top_segment_1_0.rseg_1_v3_1.v27 top_DAC_0/top_rseg_n_dcell_0.top_segment_1_0.rseg_1_v3_1.v28 GND sky130_fd_pr__res_xhigh_po_1p41 l=1.17
X132 top_DAC_0/top_rseg_n_dcell_0.top_dcell_routing_0.top_dcell_bias_0/top_digital_cell_0.decoder_3_0/decoder_2to4_2.bb[0] top_DAC_0/top_rseg_n_dcell_0.top_dcell_routing_0.top_dcell_bias_0/top_digital_cell_0.decoder_3_0/decoder_2to4_2.b[0] GND GND sky130_fd_pr__nfet_01v8 ad=0.169 pd=1.82 as=0.169 ps=1.82 w=0.65 l=0.15
X133 a_24687_20174# top_DAC_0/top_rseg_n_dcell_0.top_segment_2_0.DEC1[2] a_23629_18133# GND sky130_fd_pr__nfet_g5v0d10v5 ad=0.1218 pd=1.42 as=0.1218 ps=1.42 w=0.42 l=0.5