* PEX produced on Sat Jun 28 04:59:43 WIB 2025 using ./iic-pex.sh with m=3 and s=1
* NGSPICE file created from DAC_10b_top.ext - technology: sky130A

.subckt DAC_10b_posim_top DIN0 DIN1 DIN2 DIN3 DIN4 DIN5 DIN6 DIN7 DIN8 DIN9 ROUT1 ROUT2
+ VDD VDDH GND VOUT
X0 top_DAC_0/top_rseg_n_dcell_0.top_dcell_routing_0.top_dcell_bias_0/top_digital_cell_0.decoder_3_0/decoder_2to4_1.dec_logic_0/sky130_fd_sc_hd__nand2_1_3.Y.t1 top_DAC_0/top_rseg_n_dcell_0.top_dcell_routing_0.top_dcell_bias_0/top_digital_cell_0.decoder_3_0/decoder_2to4_1.b[1].t4 VDD.t91 VDD.t90 sky130_fd_pr__pfet_01v8_hvt ad=0.135 pd=1.27 as=0.26 ps=2.52 w=1 l=0.15
X1 a_45343_4538.t0 top_DAC_0/top_rseg_n_dcell_0.top_dcell_routing_0.top_dcell_bias_0/top_digital_cell_0.dcell_lv_0.bb[8].t4 GND.t178 GND.t177 sky130_fd_pr__nfet_01v8 ad=0.08775 pd=0.92 as=0.169 ps=1.82 w=0.65 l=0.15
X2 top_DAC_0/top_buffer_opamp_0.opa_input_and_self_bias_0/opa_input_stage_0/opa_diffpairs_0/dp_nmos_top_0/dp_nmos_5.I_ONA.t6 top_DAC_0/top_final_switch_0.VOUT[1].t4 a_6778_12595.t3 GND.t418 sky130_fd_pr__nfet_g5v0d10v5 ad=0.145 pd=1.29 as=0.145 ps=1.29 w=1 l=1
X3 GND.t970 GND.t971 GND.t56 sky130_fd_pr__res_xhigh_po_1p41 l=1.73
X4 top_DAC_0/top_rseg_n_dcell_0.top_segment_1_0.rseg_1_v3_1.v9.t1 top_DAC_0/top_rseg_n_dcell_0.top_segment_2_0.DEC2[0].t2 a_30056_7686.t3 GND.t44 sky130_fd_pr__nfet_g5v0d10v5 ad=0.1218 pd=1.42 as=0.1218 ps=1.42 w=0.42 l=0.5
X5 GND.t360 GND.t358 GND.t359 GND.t190 sky130_fd_pr__nfet_g5v0d10v5 ad=0.174 pd=1.78 as=0 ps=0 w=0.6 l=1
X6 a_44062_19517.t0 top_DAC_0/top_rseg_n_dcell_0.top_dcell_routing_0.top_dcell_bias_0/top_digital_cell_0.VBNDEC.t6 top_DAC_0/top_rseg_n_dcell_0.top_segment_2_0.DEC1[0].t0 GND.t913 sky130_fd_pr__nfet_g5v0d10v5 ad=0.29 pd=2.58 as=0.29 ps=2.58 w=1 l=1
X7 top_DAC_0/top_rseg_n_dcell_0.top_segment_4_1.rseg_4_routing_0/rseg_4_v3_0.v2.t1 top_DAC_0/top_rseg_n_dcell_0.top_segment_4_1.DEC0.t2 a_14331_6250.t3 VDDH.t491 sky130_fd_pr__pfet_g5v0d10v5 ad=0.1218 pd=1.42 as=0.1218 ps=1.42 w=0.42 l=0.5
X8 a_21927_20174.t1 top_DAC_0/top_rseg_n_dcell_0.top_segment_2_0.DEC1[0].t2 a_23629_18133.t0 GND.t901 sky130_fd_pr__nfet_g5v0d10v5 ad=0.1218 pd=1.42 as=0.1218 ps=1.42 w=0.42 l=0.5
X9 top_DAC_0/top_rseg_n_dcell_0.top_segment_2_0.rseg_2_v3_0.v2.t1 top_DAC_0/top_rseg_n_dcell_0.top_segment_2_0.rseg_2_v3_0.v1.t1 GND.t167 sky130_fd_pr__res_xhigh_po_1p41 l=10.24
X10 a_44234_9966.t0 top_DAC_0/top_rseg_n_dcell_0.top_dcell_routing_0.top_dcell_bias_0/top_digital_cell_0.VBNLV.t6 top_DAC_0/top_rseg_n_dcell_0.top_dcell_routing_0.top_dcell_bias_0/top_digital_cell_0.seg_selector_lvsf_0/lvsf_inv_3/sky130_fd_sc_hvl__inv_1_1.A.t0 GND.t46 sky130_fd_pr__nfet_g5v0d10v5 ad=0.29 pd=2.58 as=0.29 ps=2.58 w=1 l=1
X11 top_DAC_0/top_buffer_opamp_0.opa_input_and_self_bias_0/opa_input_stage_0/cm_tail_0/cm_ncell1_0.to4.t23 top_DAC_0/top_buffer_opamp_0.opa_input_and_self_bias_0/opa_input_stage_0/cm_tail_0/cm_ncell1_0.G1.t22 GND.t29 GND.t28 sky130_fd_pr__nfet_g5v0d10v5 ad=0.174 pd=1.78 as=0.174 ps=1.78 w=0.6 l=1
X12 a_44234_17252.t0 top_DAC_0/top_rseg_n_dcell_0.top_dcell_routing_0.top_dcell_bias_0/top_digital_cell_0.lvsf_7bit_0/lvsf_buff_7/lvsf_0.IN.t4 GND.t740 GND.t504 sky130_fd_pr__nfet_01v8 ad=0.87 pd=6.58 as=0.435 ps=3.29 w=3 l=0.15
X13 top_DAC_0/top_buffer_opamp_0.opa_input_and_self_bias_0/opa_input_stage_0/cm_head_0/cm_pcell1_0.io1.t19 top_DAC_0/top_buffer_opamp_0.opa_input_and_self_bias_0/opa_input_stage_0/cm_head_0/cm_pcell1_0.G1.t22 VDDH.t571 VDDH.t275 sky130_fd_pr__pfet_g5v0d10v5 ad=0.522 pd=4.18 as=0.522 ps=4.18 w=1.8 l=1
X14 GND.t379 top_DAC_0/top_rseg_n_dcell_0.top_dcell_routing_0.top_dcell_bias_0/top_digital_cell_0.lvsf_7bit_0/lvsf_buff_2/lvsf_0.INB.t4 top_DAC_0/top_rseg_n_dcell_0.top_dcell_routing_0.top_dcell_bias_0/top_digital_cell_0.lvsf_7bit_0/lvsf_buff_2/lvsf_0.IN.t1 GND.t378 sky130_fd_pr__nfet_01v8 ad=0.169 pd=1.82 as=0.08775 ps=0.92 w=0.65 l=0.15
X15 a_45023_21964.t1 top_DAC_0/top_rseg_n_dcell_0.top_dcell_routing_0.top_dcell_bias_0/top_digital_cell_0.decoder_3_0/decoder_2to4_2.b[1].t4 GND.t372 GND.t371 sky130_fd_pr__nfet_01v8 ad=0.08775 pd=0.92 as=0.169 ps=1.82 w=0.65 l=0.15
X16 GND.t357 GND.t355 GND.t356 GND.t190 sky130_fd_pr__nfet_g5v0d10v5 ad=0.174 pd=1.78 as=0 ps=0 w=0.6 l=1
X17 VDDH.t572 top_DAC_0/top_buffer_opamp_0.opa_input_and_self_bias_0/opa_input_stage_0/cm_head_0/cm_pcell1_0.G1.t23 top_DAC_0/top_buffer_opamp_0.opa_input_and_self_bias_0/opa_input_stage_0/cm_head_0/cm_pcell1_0.ho3.t7 VDDH.t44 sky130_fd_pr__pfet_g5v0d10v5 ad=0.522 pd=4.18 as=0.522 ps=4.18 w=1.8 l=1
X18 top_DAC_0/top_rseg_n_dcell_0.top_dcell_routing_0.top_dcell_bias_0/top_digital_cell_0.dcell_lv_0.seg_selector_logic_0.x1/x3.A.t0 top_DAC_0/top_rseg_n_dcell_0.top_dcell_routing_0.top_dcell_bias_0/top_digital_cell_0.decoder_3_0/decoder_2to4_1.bb[1].t4 a_43167_4358.t0 GND.t937 sky130_fd_pr__nfet_01v8 ad=0.169 pd=1.82 as=0.08775 ps=0.92 w=0.65 l=0.15
X19 top_DAC_0/top_buffer_opamp_0.opa_input_and_self_bias_0/opa_input_stage_0/cm_head_0/cm_pcell1_0.io0.t19 top_DAC_0/top_buffer_opamp_0.opa_input_and_self_bias_0/opa_input_stage_0/cm_head_0/cm_pcell1_0.G1.t24 VDDH.t507 VDDH.t277 sky130_fd_pr__pfet_g5v0d10v5 ad=0.522 pd=4.18 as=0.522 ps=4.18 w=1.8 l=1
X20 GND.t820 top_DAC_0/top_rseg_n_dcell_0.top_dcell_routing_0.top_dcell_bias_0/top_digital_cell_0.lvsf_7bit_0/lvsf_buff_7/lvsf_0.INB.t4 top_DAC_0/top_rseg_n_dcell_0.top_dcell_routing_0.top_dcell_bias_0/top_digital_cell_0.lvsf_7bit_0/lvsf_buff_7/lvsf_0.IN.t3 GND.t819 sky130_fd_pr__nfet_01v8 ad=0.169 pd=1.82 as=0.08775 ps=0.92 w=0.65 l=0.15
X21 top_DAC_0/top_rseg_n_dcell_0.top_segment_4_1.rseg_4_routing_0/rseg_4_v3_0.v23.t1 top_DAC_0/top_rseg_n_dcell_0.top_segment_4_1.rseg_4_routing_0/rseg_4_v3_0.v22.t2 GND.t387 sky130_fd_pr__res_xhigh_po_1p41 l=0.76
X22 VDDH.t508 top_DAC_0/top_buffer_opamp_0.opa_input_and_self_bias_0/opa_input_stage_0/cm_head_0/cm_pcell1_0.G1.t25 top_DAC_0/top_buffer_opamp_0.opa_input_and_self_bias_0/opa_input_stage_0/cm_head_0/cm_pcell1_0.io0.t18 VDDH.t279 sky130_fd_pr__pfet_g5v0d10v5 ad=0.522 pd=4.18 as=0.522 ps=4.18 w=1.8 l=1
X23 VDD.t120 top_DAC_0/top_rseg_n_dcell_0.top_dcell_routing_0.top_dcell_bias_0/top_digital_cell_0.lvsf_7bit_0/lvsf_buff_3/lvsf_0.INB.t4 top_DAC_0/top_rseg_n_dcell_0.top_dcell_routing_0.top_dcell_bias_0/top_digital_cell_0.lvsf_7bit_0/lvsf_buff_3/lvsf_0.IN.t3 VDD.t119 sky130_fd_pr__pfet_01v8_hvt ad=0.26 pd=2.52 as=0.135 ps=1.27 w=1 l=0.15
X24 a_14615_13536.t1 top_DAC_0/top_rseg_n_dcell_0.top_segment_4_1.b0.t2 top_DAC_0/top_rseg_n_dcell_0.VH2.t2 GND.t109 sky130_fd_pr__nfet_g5v0d10v5 ad=0.0609 pd=0.71 as=0.1218 ps=1.42 w=0.42 l=0.5
X25 a_20656_10031.t1 top_DAC_0/top_rseg_n_dcell_0.top_segment_4_1.bb2.t2 a_19946_8950.t1 VDDH.t378 sky130_fd_pr__pfet_g5v0d10v5 ad=0.1218 pd=1.42 as=0.1218 ps=1.42 w=0.42 l=0.5
X26 a_43698_8776.t0 top_DAC_0/top_rseg_n_dcell_0.top_dcell_routing_0.top_dcell_bias_0/top_digital_cell_0.seg_selector_lvsf_0/lvsf_inv_2/sky130_fd_sc_hvl__inv_1_1.A.t2 a_43724_9372.t1 VDDH.t515 sky130_fd_pr__pfet_g5v0d10v5 ad=0.29 pd=2.58 as=0.145 ps=1.29 w=1 l=0.8
X27 a_23307_20174.t1 top_DAC_0/top_rseg_n_dcell_0.top_segment_2_0.DEC1[1].t2 a_22193_18133.t1 GND.t403 sky130_fd_pr__nfet_g5v0d10v5 ad=0.1218 pd=1.42 as=0.1218 ps=1.42 w=0.42 l=0.5
X28 a_14948_18696.t1 top_DAC_0/top_rseg_n_dcell_0.top_segment_3_0.bb[5].t2 a_14790_18696.t0 VDDH.t493 sky130_fd_pr__pfet_g5v0d10v5 ad=0.1218 pd=1.42 as=0.1218 ps=1.42 w=0.42 l=0.5
X29 top_DAC_0/top_buffer_opamp_0.opa_input_and_self_bias_0/opa_input_stage_0/opa_diffpairs_0/dp_nmos_top_0/dp_nmos_5.I_ONA.t24 VOUT.t37 sky130_fd_pr__cap_mim_m3_1 l=2 w=2
X30 top_DAC_0/top_rseg_n_dcell_0.top_dcell_routing_0.top_dcell_bias_0/top_digital_cell_0.dcell_lv_0.seg_selector_logic_0.x4/x3.A.t1 top_DAC_0/top_rseg_n_dcell_0.top_dcell_routing_0.top_dcell_bias_0/top_digital_cell_0.dcell_lv_0.b[8].t4 a_43167_3162.t1 GND.t955 sky130_fd_pr__nfet_01v8 ad=0.169 pd=1.82 as=0.08775 ps=0.92 w=0.65 l=0.15
X31 top_DAC_0/top_rseg_n_dcell_0.top_dcell_routing_0.top_dcell_bias_0/top_digital_cell_0.lvsf_7bit_0/lvsf_buff_3/lvsf_0.INB.t0 DIN2.t0 VDD.t138 VDD.t137 sky130_fd_pr__pfet_01v8_hvt ad=0.135 pd=1.27 as=0.26 ps=2.52 w=1 l=0.15
X32 GND.t353 GND.t354 sky130_fd_pr__cap_mim_m3_1 l=2 w=2
X33 top_DAC_0/top_buffer_opamp_0.opa_folded_cascode_0.monticelli_top_0.A.t4 top_DAC_0/top_buffer_opamp_0.opa_input_and_self_bias_0/cm_pcell3_0.VB2.t4 top_DAC_0/top_buffer_opamp_0.opa_input_and_self_bias_0/opa_input_stage_0/opa_diffpairs_0/dp_nmos_top_0/dp_nmos_5.I_ONA.t7 VDDH.t345 sky130_fd_pr__pfet_g5v0d10v5 ad=1.392 pd=10.18 as=1.392 ps=10.18 w=4.8 l=1
X34 top_DAC_0/top_rseg_n_dcell_0.top_segment_1_0.rseg_1_v3_1.v21.t0 top_DAC_0/top_rseg_n_dcell_0.top_segment_1_0.rseg_1_v3_1.v20.t1 GND.t5 sky130_fd_pr__res_xhigh_po_1p41 l=1.37
X35 top_DAC_0/top_rseg_n_dcell_0.top_segment_4_1.rseg_4_routing_0/rseg_4_v3_0.v3.t1 top_DAC_0/top_rseg_n_dcell_0.top_segment_4_1.rseg_4_routing_0/rseg_4_v3_0.v4.t2 GND.t41 sky130_fd_pr__res_xhigh_po_1p41 l=0.55
X36 top_DAC_0/top_rseg_n_dcell_0.top_segment_2_0.DEC1[3].t1 top_DAC_0/top_rseg_n_dcell_0.top_segment_2_0.DEC1[2].t2 a_43240_20580.t1 VDDH.t382 sky130_fd_pr__pfet_g5v0d10v5 ad=0.2436 pd=2.26 as=0.1218 ps=1.13 w=0.84 l=1
X37 top_DAC_0/top_rseg_n_dcell_0.top_segment_2_0.rseg_2_v3_0.v36.t0 top_DAC_0/top_rseg_n_dcell_0.top_segment_2_0.DEC0[2].t2 a_23307_20174.t3 GND.t591 sky130_fd_pr__nfet_g5v0d10v5 ad=0.1218 pd=1.42 as=0.1218 ps=1.42 w=0.42 l=0.5
X38 GND.t423 GND.t424 GND.t167 sky130_fd_pr__res_xhigh_po_1p41 l=11.57
X39 GND.t31 top_DAC_0/top_buffer_opamp_0.opa_input_and_self_bias_0/opa_input_stage_0/cm_tail_0/cm_ncell1_0.G1.t23 top_DAC_0/top_buffer_opamp_0.opa_input_and_self_bias_0/opa_input_stage_0/cm_tail_0/cm_ncell1_0.io0.t32 GND.t30 sky130_fd_pr__nfet_g5v0d10v5 ad=0.174 pd=1.78 as=0.174 ps=1.78 w=0.6 l=1
X40 a_6923_9707.t23 VOUT.t48 top_DAC_0/top_buffer_opamp_0.opa_input_and_self_bias_0/opa_input_stage_0/opa_diffpairs_0/dp_nmos_top_0/dp_nmos_5.I_ONB.t19 GND.t813 sky130_fd_pr__nfet_g5v0d10v5 ad=0.145 pd=1.29 as=0.145 ps=1.29 w=1 l=1
X41 VDDH.t469 top_DAC_0/top_rseg_n_dcell_0.top_dcell_routing_0.top_dcell_bias_0/top_digital_cell_0.VBPLV.t6 a_43724_8936.t1 VDDH.t468 sky130_fd_pr__pfet_g5v0d10v5 ad=0.145 pd=1.29 as=0.145 ps=1.29 w=1 l=0.8
X42 a_18284_18696.t0 top_DAC_0/top_rseg_n_dcell_0.top_segment_3_0.bb[4].t2 a_15618_18696.t0 VDDH.t405 sky130_fd_pr__pfet_g5v0d10v5 ad=0.1218 pd=1.42 as=0.1218 ps=1.42 w=0.42 l=0.5
X43 top_DAC_0/top_rseg_n_dcell_0.top_segment_2_0.rseg_2_v3_0.v34.t1 top_DAC_0/top_rseg_n_dcell_0.top_segment_2_0.rseg_2_v3_0.v33.t2 GND.t22 sky130_fd_pr__res_xhigh_po_1p41 l=4.76
X44 a_31042_7686.t0 top_DAC_0/top_rseg_n_dcell_0.top_segment_2_0.DEC2[1].t2 top_DAC_0/top_rseg_n_dcell_0.top_segment_1_0.rseg_1_v3_1.v28.t0 GND.t527 sky130_fd_pr__nfet_g5v0d10v5 ad=0.1218 pd=1.42 as=0.1218 ps=1.42 w=0.42 l=0.5
X45 a_36888_19550.t3 a_36888_19786.t6 GND.t700 GND.t698 sky130_fd_pr__nfet_g5v0d10v5 ad=0.174 pd=1.78 as=0.174 ps=1.78 w=0.6 l=1
X46 top_DAC_0/top_rseg_n_dcell_0.top_dcell_routing_0.top_dcell_bias_0/top_digital_cell_0.dcell_lv_0.logic_shift_seg2_0.x4.A.t2 top_DAC_0/top_rseg_n_dcell_0.top_dcell_routing_0.top_dcell_bias_0/top_digital_cell_0.dcell_lv_0.b[8].t5 VDD.t218 VDD.t20 sky130_fd_pr__pfet_01v8_hvt ad=0.135 pd=1.27 as=0.26 ps=2.52 w=1 l=0.15
X47 top_DAC_0/top_rseg_n_dcell_0.top_segment_2_0.rseg_2_v3_0.v32.t3 top_DAC_0/top_rseg_n_dcell_0.top_segment_2_0.rseg_2_v3_0.v31.t2 GND.t60 sky130_fd_pr__res_xhigh_po_1p41 l=4.71
X48 top_DAC_0/top_rseg_n_dcell_0.top_segment_2_0.rseg_2_v3_0.v23.t2 top_DAC_0/top_rseg_n_dcell_0.top_segment_2_0.DEC0[1].t2 a_24963_20174.t3 GND.t737 sky130_fd_pr__nfet_g5v0d10v5 ad=0.1218 pd=1.42 as=0.1218 ps=1.42 w=0.42 l=0.5
X49 top_DAC_0/top_buffer_opamp_0.opa_input_and_self_bias_0/opa_input_stage_0/opa_diffpairs_0/dp_nmos_top_0/dp_nmos_5.I_ONA.t20 top_DAC_0/top_final_switch_0.VOUT[0].t4 a_5050_12595.t3 GND.t887 sky130_fd_pr__nfet_g5v0d10v5 ad=0.29 pd=2.58 as=0.145 ps=1.29 w=1 l=1
X50 a_43698_14716.t0 top_DAC_0/top_rseg_n_dcell_0.top_dcell_routing_0.top_dcell_bias_0/top_digital_cell_0.lvsf_7bit_0/lvsf_buff_5/lvsf_0.OUTP.t2 a_43724_15312.t0 VDDH.t351 sky130_fd_pr__pfet_g5v0d10v5 ad=0.29 pd=2.58 as=0.145 ps=1.29 w=1 l=0.8
X51 top_DAC_0/top_rseg_n_dcell_0.top_segment_1_0.rseg_1_v3_1.v11.t1 top_DAC_0/top_rseg_n_dcell_0.top_segment_1_0.rseg_1_v3_1.v12.t0 GND.t57 sky130_fd_pr__res_xhigh_po_1p41 l=1.99
X52 VDDH.t509 top_DAC_0/top_buffer_opamp_0.opa_input_and_self_bias_0/opa_input_stage_0/cm_head_0/cm_pcell1_0.G1.t26 top_DAC_0/top_buffer_opamp_0.opa_input_and_self_bias_0/opa_input_stage_0/cm_head_0/cm_pcell1_0.ho3.t6 VDDH.t287 sky130_fd_pr__pfet_g5v0d10v5 ad=0.522 pd=4.18 as=0.522 ps=4.18 w=1.8 l=1
X53 a_6923_9707.t11 top_DAC_0/top_final_switch_0.VOUT[4].t4 top_DAC_0/top_buffer_opamp_0.opa_input_and_self_bias_0/opa_input_stage_0/opa_diffpairs_0/dp_nmos_top_0/dp_nmos_5.I_ONA.t16 GND.t813 sky130_fd_pr__nfet_g5v0d10v5 ad=0.145 pd=1.29 as=0.145 ps=1.29 w=1 l=1
X54 top_DAC_0/top_buffer_opamp_0.opa_input_and_self_bias_0/opa_input_stage_0/cm_tail_0/cm_ncell1_0.io0.t31 top_DAC_0/top_buffer_opamp_0.opa_input_and_self_bias_0/opa_input_stage_0/cm_tail_0/cm_ncell1_0.G1.t24 GND.t33 GND.t32 sky130_fd_pr__nfet_g5v0d10v5 ad=0.174 pd=1.78 as=0.174 ps=1.78 w=0.6 l=1
X55 top_DAC_0/top_rseg_n_dcell_0.top_segment_2_0.rseg_2_v3_0.v45.t0 top_DAC_0/top_rseg_n_dcell_0.top_segment_2_0.DEC0[2].t3 a_21927_20174.t3 GND.t787 sky130_fd_pr__nfet_g5v0d10v5 ad=0.1218 pd=1.42 as=0.1218 ps=1.42 w=0.42 l=0.5
X56 VDDH.t510 top_DAC_0/top_buffer_opamp_0.opa_input_and_self_bias_0/opa_input_stage_0/cm_head_0/cm_pcell1_0.G1.t27 top_DAC_0/top_buffer_opamp_0.opa_input_and_self_bias_0/opa_input_stage_0/cm_head_0/cm_pcell1_0.ho2.t3 VDDH.t48 sky130_fd_pr__pfet_g5v0d10v5 ad=0.522 pd=4.18 as=0.522 ps=4.18 w=1.8 l=1
X57 top_DAC_0/top_rseg_n_dcell_0.top_segment_1_0.rseg_1_v3_1.v56.t0 top_DAC_0/top_rseg_n_dcell_0.top_segment_2_0.DEC2[3].t2 a_29780_7686.t1 GND.t928 sky130_fd_pr__nfet_g5v0d10v5 ad=0.1218 pd=1.42 as=0.1218 ps=1.42 w=0.42 l=0.5
X58 a_31870_7686.t0 top_DAC_0/top_rseg_n_dcell_0.top_segment_2_0.DEC2[1].t3 top_DAC_0/top_rseg_n_dcell_0.top_segment_1_0.rseg_1_v3_1.v31.t1 GND.t528 sky130_fd_pr__nfet_g5v0d10v5 ad=0.1218 pd=1.42 as=0.1218 ps=1.42 w=0.42 l=0.5
X59 top_DAC_0/top_final_switch_0.VOUT[1].t3 top_DAC_0/top_rseg_n_dcell_0.SH[3].t2 top_DAC_0/top_rseg_n_dcell_0.VL3.t2 VDDH.t562 sky130_fd_pr__pfet_g5v0d10v5 ad=0.0609 pd=0.71 as=0.1218 ps=1.42 w=0.42 l=0.5
X60 top_DAC_0/top_rseg_n_dcell_0.top_segment_1_0.rseg_1_v3_1.v39.t0 top_DAC_0/top_rseg_n_dcell_0.top_segment_1_0.rseg_1_v3_1.v38.t0 GND.t364 sky130_fd_pr__res_xhigh_po_1p41 l=0.91
X61 VDD.t211 top_DAC_0/top_rseg_n_dcell_0.top_dcell_routing_0.top_dcell_bias_0/top_digital_cell_0.decoder_3_0/decoder_2to4_1.bb[1].t5 top_DAC_0/top_rseg_n_dcell_0.top_dcell_routing_0.top_dcell_bias_0/top_digital_cell_0.dcell_lv_0.seg_selector_logic_0.x3/x3.B.t4 VDD.t210 sky130_fd_pr__pfet_01v8_hvt ad=0.3 pd=2.6 as=0.165 ps=1.33 w=1 l=0.15
X62 top_DAC_0/top_buffer_opamp_0.opa_input_and_self_bias_0/opa_input_stage_0/cm_head_0/cm_pcell1_0.ho1.t1 top_DAC_0/top_buffer_opamp_0.opa_input_and_self_bias_0/opa_input_stage_0/cm_head_0/cm_pcell1_0.G1.t28 VDDH.t511 VDDH.t288 sky130_fd_pr__pfet_g5v0d10v5 ad=0.522 pd=4.18 as=0.522 ps=4.18 w=1.8 l=1
X63 top_DAC_0/top_rseg_n_dcell_0.top_dcell_routing_0.top_dcell_bias_0/top_digital_cell_0.seg_selector_lvsf_0/lvsf_inv_1/lvsf_0.INB.t1 top_DAC_0/top_rseg_n_dcell_0.top_dcell_routing_0.top_dcell_bias_0/top_digital_cell_0.dcell_lv_0.seg_selector_logic_0.x2/x4.A.t3 a_44255_4614.t0 GND.t954 sky130_fd_pr__nfet_01v8 ad=0.195 pd=1.9 as=0.10725 ps=0.98 w=0.65 l=0.15
X64 a_23629_18133.t1 top_DAC_0/top_rseg_n_dcell_0.top_segment_2_0.DEC2[1].t4 top_DAC_0/top_rseg_n_dcell_0.VL2.t1 GND.t529 sky130_fd_pr__nfet_g5v0d10v5 ad=0.1218 pd=1.42 as=0.1218 ps=1.42 w=0.42 l=0.5
X65 top_DAC_0/top_rseg_n_dcell_0.top_segment_1_0.rseg_1_v3_1.v3.t0 top_DAC_0/top_rseg_n_dcell_0.top_segment_1_0.rseg_1_v3_1.v4.t0 GND.t368 sky130_fd_pr__res_xhigh_po_1p41 l=3.37
X66 VDD.t220 top_DAC_0/top_rseg_n_dcell_0.top_dcell_routing_0.top_dcell_bias_0/top_digital_cell_0.dcell_lv_0.b[8].t6 top_DAC_0/top_rseg_n_dcell_0.top_dcell_routing_0.top_dcell_bias_0/top_digital_cell_0.dcell_lv_0.seg_selector_logic_0.x3/x3.B.t2 VDD.t219 sky130_fd_pr__pfet_01v8_hvt ad=0.135 pd=1.27 as=0.135 ps=1.27 w=1 l=0.15
X67 top_DAC_0/top_buffer_opamp_0.opa_input_and_self_bias_0/opa_input_stage_0/opa_diffpairs_0/dp_nmos_top_0/dp_nmos_5.I_ONB.t23 VOUT.t49 a_5050_12595.t9 GND.t887 sky130_fd_pr__nfet_g5v0d10v5 ad=0.29 pd=2.58 as=0.145 ps=1.29 w=1 l=1
X68 top_DAC_0/top_buffer_opamp_0.opa_input_and_self_bias_0/cm_ncell3_0.VTAIL2.t3 top_DAC_0/top_buffer_opamp_0.opa_input_and_self_bias_0/cm_ncell3_0.DRAIN.t22 top_DAC_0/top_buffer_opamp_0.opa_input_and_self_bias_0/cm_ncell3_0.DRAIN.t23 GND.t539 sky130_fd_pr__nfet_g5v0d10v5 ad=0.087 pd=0.89 as=0.174 ps=1.78 w=0.6 l=20
X69 a_14615_14034.t1 top_DAC_0/top_rseg_n_dcell_0.SH[2].t2 top_DAC_0/top_final_switch_0.VOUT[3].t0 GND.t496 sky130_fd_pr__nfet_g5v0d10v5 ad=0.1218 pd=1.42 as=0.0609 ps=0.71 w=0.42 l=0.5
X70 a_20932_10031.t0 top_DAC_0/top_rseg_n_dcell_0.top_segment_4_1.b2.t2 a_18724_8950.t1 VDDH.t249 sky130_fd_pr__pfet_g5v0d10v5 ad=0.1218 pd=1.42 as=0.1218 ps=1.42 w=0.42 l=0.5
X71 top_DAC_0/top_rseg_n_dcell_0.top_dcell_routing_0.top_dcell_bias_0/top_digital_cell_0.decoder_3_0/dec_2_0/decoder_2to4_0.dec_logic_0/sky130_fd_sc_hd__nand2_1_2.Y.t0 top_DAC_0/top_rseg_n_dcell_0.top_dcell_routing_0.top_dcell_bias_0/top_digital_cell_0.lvsf_7bit_0/lvsf_buff_4/lvsf_0.IN.t4 a_45023_18840.t0 GND.t155 sky130_fd_pr__nfet_01v8 ad=0.169 pd=1.82 as=0.08775 ps=0.92 w=0.65 l=0.15
X72 a_24135_20174.t0 top_DAC_0/top_rseg_n_dcell_0.top_segment_2_0.DEC1[1].t3 a_23629_18133.t5 GND.t404 sky130_fd_pr__nfet_g5v0d10v5 ad=0.1218 pd=1.42 as=0.1218 ps=1.42 w=0.42 l=0.5
X73 a_15098_19866.t1 top_DAC_0/top_rseg_n_dcell_0.top_segment_3_0.bb[5].t3 a_15618_18696.t1 VDDH.t494 sky130_fd_pr__pfet_g5v0d10v5 ad=0.1218 pd=1.42 as=0.1218 ps=1.42 w=0.42 l=0.5
X74 a_43167_4358.t1 top_DAC_0/top_rseg_n_dcell_0.top_dcell_routing_0.top_dcell_bias_0/top_digital_cell_0.lvsf_7bit_0/lvsf_buff_7/lvsf_0.INB.t5 GND.t822 GND.t821 sky130_fd_pr__nfet_01v8 ad=0.08775 pd=0.92 as=0.169 ps=1.82 w=0.65 l=0.15
X75 top_DAC_0/top_rseg_n_dcell_0.top_segment_2_0.rseg_2_v3_0.v22.t0 top_DAC_0/top_rseg_n_dcell_0.top_segment_2_0.rseg_2_v3_0.v21.t0 GND.t12 sky130_fd_pr__res_xhigh_po_1p41 l=4.81
X76 VDDH.t237 VDDH.t235 VDDH.t236 VDDH.t130 sky130_fd_pr__pfet_g5v0d10v5 ad=0.522 pd=4.18 as=0 ps=0 w=1.8 l=1
X77 top_DAC_0/top_rseg_n_dcell_0.top_dcell_routing_0.top_dcell_bias_0/top_digital_cell_0.dcell_lv_0.seg_selector_logic_0.x3/x3.A.t0 top_DAC_0/top_rseg_n_dcell_0.top_dcell_routing_0.top_dcell_bias_0/top_digital_cell_0.dcell_lv_0.b[9].t4 a_43391_3326.t0 GND.t140 sky130_fd_pr__nfet_01v8 ad=0.195 pd=1.9 as=0.10725 ps=0.98 w=0.65 l=0.15
X78 top_DAC_0/top_buffer_opamp_0.opa_input_and_self_bias_0/cm_ncell3_0.DRAIN.t19 top_DAC_0/top_buffer_opamp_0.opa_input_and_self_bias_0/cm_pcell3_0.VB2.t5 top_DAC_0/top_buffer_opamp_0.opa_input_and_self_bias_0/opa_input_stage_0/cm_head_0/cm_pcell1_0.io1.t22 VDDH.t287 sky130_fd_pr__pfet_g5v0d10v5 ad=0.522 pd=4.18 as=0.522 ps=4.18 w=1.8 l=1
X79 VDDH.t234 VDDH.t232 VDDH.t233 VDDH.t89 sky130_fd_pr__pfet_g5v0d10v5 ad=0.522 pd=4.18 as=0 ps=0 w=1.8 l=1
X80 GND.t35 top_DAC_0/top_buffer_opamp_0.opa_input_and_self_bias_0/opa_input_stage_0/cm_tail_0/cm_ncell1_0.G1.t25 top_DAC_0/top_buffer_opamp_0.opa_input_and_self_bias_0/opa_input_stage_0/cm_tail_0/cm_ncell1_0.to1.t3 GND.t34 sky130_fd_pr__nfet_g5v0d10v5 ad=0.174 pd=1.78 as=0.174 ps=1.78 w=0.6 l=1
X81 a_42982_21320.t1 top_DAC_0/top_rseg_n_dcell_0.top_segment_2_0.DEC0[0].t2 a_42724_21320.t1 VDDH.t256 sky130_fd_pr__pfet_g5v0d10v5 ad=0.1218 pd=1.13 as=0.1218 ps=1.13 w=0.84 l=1
X82 top_DAC_0/top_buffer_opamp_0.opa_input_and_self_bias_0/opa_input_stage_0/cm_head_0/cm_pcell1_0.ho4.t15 top_DAC_0/top_buffer_opamp_0.opa_input_and_self_bias_0/opa_input_stage_0/cm_head_0/cm_pcell1_0.G1.t29 VDDH.t512 VDDH.t238 sky130_fd_pr__pfet_g5v0d10v5 ad=0.522 pd=4.18 as=0.522 ps=4.18 w=1.8 l=1
X83 top_DAC_0/top_rseg_n_dcell_0.top_segment_2_0.rseg_2_v3_0.v33.t0 top_DAC_0/top_rseg_n_dcell_0.top_segment_2_0.DEC0[2].t4 a_24135_20174.t1 GND.t788 sky130_fd_pr__nfet_g5v0d10v5 ad=0.1218 pd=1.42 as=0.1218 ps=1.42 w=0.42 l=0.5
X84 top_DAC_0/top_rseg_n_dcell_0.top_segment_4_1.bb1.t1 top_DAC_0/top_rseg_n_dcell_0.top_dcell_routing_0.top_dcell_bias_0/top_digital_cell_0.lvsf_7bit_0/lvsf_buff_1/lvsf_0.OUTP.t2 GND.t889 GND.t888 sky130_fd_pr__nfet_g5v0d10v5 ad=0.21375 pd=2.07 as=0.21375 ps=2.07 w=0.75 l=0.5
X85 top_DAC_0/top_rseg_n_dcell_0.top_dcell_routing_0.top_dcell_bias_0/top_digital_cell_0.lvsf_7bit_0/lvsf_buff_3/lvsf_0.IN.t2 top_DAC_0/top_rseg_n_dcell_0.top_dcell_routing_0.top_dcell_bias_0/top_digital_cell_0.lvsf_7bit_0/lvsf_buff_3/lvsf_0.INB.t5 VDD.t122 VDD.t121 sky130_fd_pr__pfet_01v8_hvt ad=0.135 pd=1.27 as=0.26 ps=2.52 w=1 l=0.15
X86 VDDH.t231 VDDH.t229 VDDH.t230 VDDH.t130 sky130_fd_pr__pfet_g5v0d10v5 ad=0.522 pd=4.18 as=0 ps=0 w=1.8 l=1
X87 VDDH.t513 top_DAC_0/top_buffer_opamp_0.opa_input_and_self_bias_0/opa_input_stage_0/cm_head_0/cm_pcell1_0.G1.t30 top_DAC_0/top_buffer_opamp_0.opa_input_and_self_bias_0/opa_input_stage_0/cm_head_0/cm_pcell1_0.io1.t18 VDDH.t262 sky130_fd_pr__pfet_g5v0d10v5 ad=0.522 pd=4.18 as=0.522 ps=4.18 w=1.8 l=1
X88 GND.t352 GND.t350 GND.t351 GND.t194 sky130_fd_pr__nfet_g5v0d10v5 ad=0.174 pd=1.78 as=0 ps=0 w=0.6 l=1
X89 top_DAC_0/top_buffer_opamp_0.opa_folded_cascode_0.monticelli_top_0.B.t1 top_DAC_0/top_buffer_opamp_0.opa_input_and_self_bias_0/cm_ncell3_0.VTAIL2.t4 top_DAC_0/top_buffer_opamp_0.opa_input_and_self_bias_0/opa_input_stage_0/opa_diffpairs_0/dp_pmos_top_0/dp_pmos_5.I_OPA.t9 GND.t660 sky130_fd_pr__nfet_g5v0d10v5 ad=0.464 pd=3.78 as=0.464 ps=3.78 w=1.6 l=1
X90 VDDH.t313 top_DAC_0/top_buffer_opamp_0.opa_input_and_self_bias_0/opa_input_stage_0/cm_head_0/cm_pcell1_0.G1.t31 top_DAC_0/top_buffer_opamp_0.opa_input_and_self_bias_0/opa_input_stage_0/cm_head_0/cm_pcell1_0.io1.t17 VDDH.t297 sky130_fd_pr__pfet_g5v0d10v5 ad=0.522 pd=4.18 as=0.522 ps=4.18 w=1.8 l=1
X91 top_DAC_0/top_rseg_n_dcell_0.top_dcell_routing_0.top_dcell_bias_0/top_digital_cell_0.lvsf_7bit_0/lvsf_buff_4/lvsf_0.IN.t0 top_DAC_0/top_rseg_n_dcell_0.top_dcell_routing_0.top_dcell_bias_0/top_digital_cell_0.lvsf_7bit_0/lvsf_buff_4/lvsf_0.INB.t4 VDD.t164 VDD.t163 sky130_fd_pr__pfet_01v8_hvt ad=0.135 pd=1.27 as=0.26 ps=2.52 w=1 l=0.15
X92 top_DAC_0/top_buffer_opamp_0.opa_input_and_self_bias_0/opa_input_stage_0/cm_tail_0/cm_ncell1_0.to2.t7 top_DAC_0/top_buffer_opamp_0.opa_input_and_self_bias_0/opa_input_stage_0/cm_tail_0/cm_ncell1_0.G1.t26 GND.t37 GND.t36 sky130_fd_pr__nfet_g5v0d10v5 ad=0.174 pd=1.78 as=0.174 ps=1.78 w=0.6 l=1
X93 top_DAC_0/top_buffer_opamp_0.opa_input_and_self_bias_0/opa_input_stage_0/cm_head_0/cm_pcell1_0.io0.t22 top_DAC_0/top_buffer_opamp_0.opa_input_and_self_bias_0/cm_pcell3_0.VB2.t6 top_DAC_0/top_buffer_opamp_0.opa_input_and_self_bias_0/opa_input_stage_0/cm_head_0/cm_pcell1_0.G1.t2 VDDH.t288 sky130_fd_pr__pfet_g5v0d10v5 ad=0.522 pd=4.18 as=0.522 ps=4.18 w=1.8 l=1
X94 top_DAC_0/top_rseg_n_dcell_0.top_segment_1_0.rseg_1_v3_1.v59.t0 top_DAC_0/top_rseg_n_dcell_0.top_segment_1_0.rseg_1_v3_1.v60.t0 GND.t81 sky130_fd_pr__res_xhigh_po_1p41 l=0.66
X95 a_15224_18696.t2 top_DAC_0/top_rseg_n_dcell_0.top_segment_3_0.bb[6].t2 top_DAC_0/top_rseg_n_dcell_0.top_segment_3_0.rseg_3_v3_0.v6.t0 VDDH.t498 sky130_fd_pr__pfet_g5v0d10v5 ad=0.1218 pd=1.42 as=0.1218 ps=1.42 w=0.42 l=0.5
X96 top_DAC_0/top_rseg_n_dcell_0.top_dcell_routing_0.top_dcell_bias_0/top_digital_cell_0.lvsf_7bit_0/lvsf_buff_1/lvsf_0.INB.t3 DIN1.t0 VDD.t52 VDD.t51 sky130_fd_pr__pfet_01v8_hvt ad=0.135 pd=1.27 as=0.26 ps=2.52 w=1 l=0.15
X97 top_DAC_0/top_buffer_opamp_0.opa_input_and_self_bias_0/opa_input_stage_0/opa_diffpairs_0/dp_pmos_top_0/dp_pmos_5.I_OPA.t28 VOUT.t42 sky130_fd_pr__cap_mim_m3_1 l=2 w=2
X98 a_44234_11946.t1 top_DAC_0/top_rseg_n_dcell_0.top_dcell_routing_0.top_dcell_bias_0/top_digital_cell_0.VBNLV.t7 top_DAC_0/top_rseg_n_dcell_0.top_dcell_routing_0.top_dcell_bias_0/top_digital_cell_0.lvsf_7bit_0/lvsf_buff_1/lvsf_0.OUTP.t1 GND.t47 sky130_fd_pr__nfet_g5v0d10v5 ad=0.29 pd=2.58 as=0.29 ps=2.58 w=1 l=1
X99 GND.t348 GND.t349 sky130_fd_pr__cap_mim_m3_1 l=2 w=2
X100 GND.t734 DIN2.t1 top_DAC_0/top_rseg_n_dcell_0.top_dcell_routing_0.top_dcell_bias_0/top_digital_cell_0.lvsf_7bit_0/lvsf_buff_3/lvsf_0.INB.t1 GND.t733 sky130_fd_pr__nfet_01v8 ad=0.169 pd=1.82 as=0.08775 ps=0.92 w=0.65 l=0.15
X101 top_DAC_0/top_rseg_n_dcell_0.top_segment_4_1.rseg_4_routing_0/rseg_4_v3_0.v27.t2 top_DAC_0/top_rseg_n_dcell_0.top_segment_4_1.rseg_4_routing_0/rseg_4_v3_0.v26.t0 GND.t18 sky130_fd_pr__res_xhigh_po_1p41 l=0.76
X102 top_DAC_0/top_rseg_n_dcell_0.top_segment_4_1.rseg_4_routing_0/rseg_4_v3_0.v57.t2 top_DAC_0/top_rseg_n_dcell_0.top_segment_4_1.DEC3.t2 a_15629_7686.t4 VDDH.t59 sky130_fd_pr__pfet_g5v0d10v5 ad=0.1218 pd=1.42 as=0.1218 ps=1.42 w=0.42 l=0.5
X103 a_31594_7686.t0 top_DAC_0/top_rseg_n_dcell_0.top_segment_2_0.DEC2[1].t5 top_DAC_0/top_rseg_n_dcell_0.top_segment_1_0.rseg_1_v3_1.v30.t1 GND.t530 sky130_fd_pr__nfet_g5v0d10v5 ad=0.1218 pd=1.42 as=0.1218 ps=1.42 w=0.42 l=0.5
X104 top_DAC_0/top_rseg_n_dcell_0.top_segment_2_0.rseg_2_v3_0.v46.t1 top_DAC_0/top_rseg_n_dcell_0.top_segment_2_0.rseg_2_v3_0.v47.t1 GND.t80 sky130_fd_pr__res_xhigh_po_1p41 l=6.09
X105 top_DAC_0/top_rseg_n_dcell_0.top_dcell_routing_0.top_dcell_bias_0/top_digital_cell_0.dcell_lv_0.seg_selector_logic_0.x2/x4.B.t0 top_DAC_0/top_rseg_n_dcell_0.top_dcell_routing_0.top_dcell_bias_0/top_digital_cell_0.dcell_lv_0.bb[9].t4 a_44255_3438.t0 GND.t547 sky130_fd_pr__nfet_01v8 ad=0.169 pd=1.82 as=0.08775 ps=0.92 w=0.65 l=0.15
X106 top_DAC_0/top_rseg_n_dcell_0.top_dcell_routing_0.top_dcell_bias_0/top_digital_cell_0.dcell_lv_0.logic_shift_seg2_0.x4.A.t1 top_DAC_0/top_rseg_n_dcell_0.top_dcell_routing_0.top_dcell_bias_0/top_digital_cell_0.dcell_lv_0.b[9].t5 a_44479_3254.t0 GND.t141 sky130_fd_pr__nfet_01v8 ad=0.169 pd=1.82 as=0.08775 ps=0.92 w=0.65 l=0.15
X107 a_43698_9766.t1 top_DAC_0/top_rseg_n_dcell_0.top_dcell_routing_0.top_dcell_bias_0/top_digital_cell_0.VBNLV.t8 a_44234_10322.t1 GND.t48 sky130_fd_pr__nfet_g5v0d10v5 ad=0.29 pd=2.58 as=0.29 ps=2.58 w=1 l=1
X108 a_14514_18696.t2 top_DAC_0/top_rseg_n_dcell_0.top_segment_3_0.b[5].t2 a_17148_18696.t2 VDDH.t440 sky130_fd_pr__pfet_g5v0d10v5 ad=0.1218 pd=1.42 as=0.1218 ps=1.42 w=0.42 l=0.5
X109 top_DAC_0/top_rseg_n_dcell_0.top_segment_3_0.rseg_3_v3_0.v14.t1 top_DAC_0/top_rseg_n_dcell_0.top_segment_3_0.rseg_3_v3_0.v15.t0 GND.t79 sky130_fd_pr__res_xhigh_po_1p41 l=5.12
X110 GND.t935 DIN5.t0 top_DAC_0/top_rseg_n_dcell_0.top_dcell_routing_0.top_dcell_bias_0/top_digital_cell_0.lvsf_7bit_0/lvsf_buff_4/lvsf_0.INB.t3 GND.t934 sky130_fd_pr__nfet_01v8 ad=0.169 pd=1.82 as=0.08775 ps=0.92 w=0.65 l=0.15
X111 top_DAC_0/top_buffer_opamp_0.opa_input_and_self_bias_0/opa_input_stage_0/cm_head_0/cm_pcell1_0.ho4.t14 top_DAC_0/top_buffer_opamp_0.opa_input_and_self_bias_0/opa_input_stage_0/cm_head_0/cm_pcell1_0.G1.t32 VDDH.t314 VDDH.t42 sky130_fd_pr__pfet_g5v0d10v5 ad=0.522 pd=4.18 as=0.522 ps=4.18 w=1.8 l=1
X112 top_DAC_0/top_rseg_n_dcell_0.VL2.t2 top_DAC_0/top_rseg_n_dcell_0.top_segment_4_1.bb2.t3 a_14615_14034.t2 GND.t487 sky130_fd_pr__nfet_g5v0d10v5 ad=0.1218 pd=1.42 as=0.0609 ps=0.71 w=0.42 l=0.5
X113 top_DAC_0/top_buffer_opamp_0.opa_input_and_self_bias_0/opa_input_stage_0/cm_head_0/cm_pcell1_0.io1.t23 top_DAC_0/top_buffer_opamp_0.opa_input_and_self_bias_0/cm_pcell3_0.VB2.t7 top_DAC_0/top_buffer_opamp_0.opa_input_and_self_bias_0/cm_ncell3_0.DRAIN.t18 VDDH.t238 sky130_fd_pr__pfet_g5v0d10v5 ad=0.522 pd=4.18 as=0.522 ps=4.18 w=1.8 l=1
X114 top_DAC_0/top_rseg_n_dcell_0.top_segment_3_0.rseg_3_v3_0.v12.t2 top_DAC_0/top_rseg_n_dcell_0.top_segment_3_0.rseg_3_v3_0.v11.t2 GND.t79 sky130_fd_pr__res_xhigh_po_1p41 l=4.45
X115 VDDH.t315 top_DAC_0/top_buffer_opamp_0.opa_input_and_self_bias_0/opa_input_stage_0/cm_head_0/cm_pcell1_0.G1.t33 top_DAC_0/top_buffer_opamp_0.opa_input_and_self_bias_0/opa_input_stage_0/cm_head_0/cm_pcell1_0.io2.t7 VDDH.t275 sky130_fd_pr__pfet_g5v0d10v5 ad=0.522 pd=4.18 as=0.522 ps=4.18 w=1.8 l=1
X116 top_DAC_0/top_rseg_n_dcell_0.top_dcell_routing_0.top_dcell_bias_0/top_digital_cell_0.VBNDEC.t2 top_DAC_0/top_rseg_n_dcell_0.top_dcell_routing_0.top_dcell_bias_0/top_digital_cell_0.VBNDEC.t1 a_38672_20477.t1 GND.t799 sky130_fd_pr__nfet_g5v0d10v5 ad=0.174 pd=1.78 as=0.174 ps=1.78 w=0.6 l=1
X117 GND.t898 GND.t899 GND.t19 sky130_fd_pr__res_xhigh_po_1p41 l=0.66
X118 top_DAC_0/top_rseg_n_dcell_0.top_segment_2_0.rseg_2_v3_0.v16.t2 top_DAC_0/top_rseg_n_dcell_0.top_segment_2_0.DEC0[0].t3 a_21375_20174.t2 GND.t161 sky130_fd_pr__nfet_g5v0d10v5 ad=0.1218 pd=1.42 as=0.1218 ps=1.42 w=0.42 l=0.5
X119 GND.t441 DIN8.t0 top_DAC_0/top_rseg_n_dcell_0.top_dcell_routing_0.top_dcell_bias_0/top_digital_cell_0.dcell_lv_0.bb[8].t0 GND.t440 sky130_fd_pr__nfet_01v8 ad=0.169 pd=1.82 as=0.08775 ps=0.92 w=0.65 l=0.15
X120 VDDH.t316 top_DAC_0/top_buffer_opamp_0.opa_input_and_self_bias_0/opa_input_stage_0/cm_head_0/cm_pcell1_0.G1.t34 top_DAC_0/top_buffer_opamp_0.opa_input_and_self_bias_0/opa_input_stage_0/cm_head_0/cm_pcell1_0.io2.t6 VDDH.t277 sky130_fd_pr__pfet_g5v0d10v5 ad=0.522 pd=4.18 as=0.522 ps=4.18 w=1.8 l=1
X121 top_DAC_0/top_buffer_opamp_0.opa_input_and_self_bias_0/opa_input_stage_0/opa_diffpairs_0/dp_nmos_top_0/dp_nmos_5.I_ONA.t25 VOUT.t36 sky130_fd_pr__cap_mim_m3_1 l=2 w=2
X122 a_16615_7686.t4 top_DAC_0/top_rseg_n_dcell_0.top_segment_4_1.DEC3.t3 top_DAC_0/top_rseg_n_dcell_0.top_segment_4_1.rseg_4_routing_0/rseg_4_v3_0.v60.t2 VDDH.t60 sky130_fd_pr__pfet_g5v0d10v5 ad=0.1218 pd=1.42 as=0.1218 ps=1.42 w=0.42 l=0.5
X123 VDDH.t471 top_DAC_0/top_rseg_n_dcell_0.top_dcell_routing_0.top_dcell_bias_0/top_digital_cell_0.VBPLV.t7 a_43724_15866.t1 VDDH.t470 sky130_fd_pr__pfet_g5v0d10v5 ad=0.145 pd=1.29 as=0.145 ps=1.29 w=1 l=0.8