* PEX produced on Mon Jun  9 18:31:02 WIB 2025 using ./iic-pex.sh with m=3 and s=1
* NGSPICE file created from top_segment_4.ext - technology: sky130A

.subckt top_segment_4_posim V0 V63 DEC0 DEC1 DEC2 DEC3 b0 b1 b2 b3 bb0 bb1 bb2 bb3 VOUT
+ GND VPB
X0 rseg_4_routing_0/rseg_4_v3_0.v39.t2 rseg_4_routing_0/rseg_4_v3_0.v40.t2 GND.t7 sky130_fd_pr__res_xhigh_po_1p41 l=1.02
X1 rseg_4_routing_0/rseg_4_v3_0.v1.t0 V0.t1 GND.t20 sky130_fd_pr__res_xhigh_po_1p41 l=0.55
X2 a_31783_n8174.t4 b3.t0 a_36412_n5474.t2 VPB.t77 sky130_fd_pr__pfet_g5v0d10v5 ad=0.1218 pd=1.42 as=0.1218 ps=1.42 w=0.42 l=0.5
X3 a_33081_n6738.t3 DEC1.t0 rseg_4_routing_0/rseg_4_v3_0.v30.t1 VPB.t85 sky130_fd_pr__pfet_g5v0d10v5 ad=0.1218 pd=1.42 as=0.1218 ps=1.42 w=0.42 l=0.5
X4 rseg_4_routing_0/rseg_4_v3_0.v57.t2 DEC3.t0 a_31543_n6738.t3 VPB.t59 sky130_fd_pr__pfet_g5v0d10v5 ad=0.1218 pd=1.42 as=0.1218 ps=1.42 w=0.42 l=0.5
X5 rseg_4_routing_0/rseg_4_v3_0.v61.t1 rseg_4_routing_0/rseg_4_v3_0.v60.t2 GND.t0 sky130_fd_pr__res_xhigh_po_1p41 l=2.14
X6 GND.t21 GND.t22 GND.t7 sky130_fd_pr__res_xhigh_po_1p41 l=0.86
X7 a_32529_n6738.t1 DEC3.t1 rseg_4_routing_0/rseg_4_v3_0.v60.t1 VPB.t44 sky130_fd_pr__pfet_g5v0d10v5 ad=0.1218 pd=1.42 as=0.1218 ps=1.42 w=0.42 l=0.5
X8 rseg_4_routing_0/rseg_4_v3_0.v47.t1 rseg_4_routing_0/rseg_4_v3_0.v48.t1 GND.t15 sky130_fd_pr__res_xhigh_po_1p41 l=1.22
X9 a_36846_n4393.t2 b1.t0 a_35686_n4393.t1 VPB.t67 sky130_fd_pr__pfet_g5v0d10v5 ad=0.1218 pd=1.42 as=0.1218 ps=1.42 w=0.42 l=0.5
X10 a_32805_n6738.t4 DEC1.t1 rseg_4_routing_0/rseg_4_v3_0.v29.t1 VPB.t68 sky130_fd_pr__pfet_g5v0d10v5 ad=0.1218 pd=1.42 as=0.1218 ps=1.42 w=0.42 l=0.5
X11 a_33081_n6738.t0 DEC2.t0 rseg_4_routing_0/rseg_4_v3_0.v46.t1 VPB.t0 sky130_fd_pr__pfet_g5v0d10v5 ad=0.1218 pd=1.42 as=0.1218 ps=1.42 w=0.42 l=0.5
X12 rseg_4_routing_0/rseg_4_v3_0.v51.t0 rseg_4_routing_0/rseg_4_v3_0.v52.t1 GND.t3 sky130_fd_pr__res_xhigh_po_1p41 l=1.37
X13 rseg_4_routing_0/rseg_4_v3_0.v41.t2 DEC2.t1 a_31543_n6738.t1 VPB.t34 sky130_fd_pr__pfet_g5v0d10v5 ad=0.1218 pd=1.42 as=0.1218 ps=1.42 w=0.42 l=0.5
X14 a_35584_n5474.t2 bb3.t0 a_32529_n6738.t3 VPB.t79 sky130_fd_pr__pfet_g5v0d10v5 ad=0.1218 pd=1.42 as=0.1218 ps=1.42 w=0.42 l=0.5
X15 rseg_4_routing_0/rseg_4_v3_0.v55.t2 rseg_4_routing_0/rseg_4_v3_0.v56.t2 GND.t3 sky130_fd_pr__res_xhigh_po_1p41 l=1.63
X16 rseg_4_routing_0/rseg_4_v3_0.v43.t0 rseg_4_routing_0/rseg_4_v3_0.v42.t1 GND.t15 sky130_fd_pr__res_xhigh_po_1p41 l=1.07
X17 GND.t18 GND.t19 GND.t12 sky130_fd_pr__res_xhigh_po_1p41 l=0.61
X18 rseg_4_routing_0/rseg_4_v3_0.v37.t1 rseg_4_routing_0/rseg_4_v3_0.v36.t1 GND.t7 sky130_fd_pr__res_xhigh_po_1p41 l=0.91
X19 a_36412_n5474.t0 bb3.t1 a_33357_n6738.t3 VPB.t6 sky130_fd_pr__pfet_g5v0d10v5 ad=0.1218 pd=1.42 as=0.1218 ps=1.42 w=0.42 l=0.5
X20 a_33081_n6738.t4 DEC3.t2 rseg_4_routing_0/rseg_4_v3_0.v62.t1 VPB.t88 sky130_fd_pr__pfet_g5v0d10v5 ad=0.1218 pd=1.42 as=0.1218 ps=1.42 w=0.42 l=0.5
X21 rseg_4_routing_0/rseg_4_v3_0.v33.t0 DEC2.t2 a_29969_n8174.t4 VPB.t38 sky130_fd_pr__pfet_g5v0d10v5 ad=0.1218 pd=1.42 as=0.1218 ps=1.42 w=0.42 l=0.5
X22 a_36266_n4393.t2 bb1.t0 a_35686_n4393.t0 VPB.t8 sky130_fd_pr__pfet_g5v0d10v5 ad=0.1218 pd=1.42 as=0.1218 ps=1.42 w=0.42 l=0.5
X23 rseg_4_routing_0/rseg_4_v3_0.v47.t2 rseg_4_routing_0/rseg_4_v3_0.v46.t2 GND.t15 sky130_fd_pr__res_xhigh_po_1p41 l=1.17
X24 rseg_4_routing_0/rseg_4_v3_0.v49.t1 rseg_4_routing_0/rseg_4_v3_0.v50.t1 GND.t3 sky130_fd_pr__res_xhigh_po_1p41 l=1.27
X25 a_30955_n8174.t4 DEC2.t3 rseg_4_routing_0/rseg_4_v3_0.v36.t2 VPB.t17 sky130_fd_pr__pfet_g5v0d10v5 ad=0.1218 pd=1.42 as=0.1218 ps=1.42 w=0.42 l=0.5
X26 rseg_4_routing_0/rseg_4_v3_0.v33.t1 rseg_4_routing_0/rseg_4_v3_0.v32.t2 GND.t7 sky130_fd_pr__res_xhigh_po_1p41 l=0.86
X27 GND.t5 GND.t6 GND.t4 sky130_fd_pr__res_xhigh_po_1p41 l=0.81
X28 a_35990_n4393.t0 bb2.t0 a_36412_n5474.t1 VPB.t53 sky130_fd_pr__pfet_g5v0d10v5 ad=0.1218 pd=1.42 as=0.1218 ps=1.42 w=0.42 l=0.5
X29 GND.t8 GND.t9 GND.t7 sky130_fd_pr__res_xhigh_po_1p41 l=1.02
X30 a_33357_n6738.t1 DEC3.t3 V63.t1 VPB.t62 sky130_fd_pr__pfet_g5v0d10v5 ad=0.1218 pd=1.42 as=0.1218 ps=1.42 w=0.42 l=0.5
X31 rseg_4_routing_0/rseg_4_v3_0.v3.t0 DEC0.t0 a_30521_n8174.t0 VPB.t27 sky130_fd_pr__pfet_g5v0d10v5 ad=0.1218 pd=1.42 as=0.1218 ps=1.42 w=0.42 l=0.5
X32 rseg_4_routing_0/rseg_4_v3_0.v17.t1 DEC1.t2 a_29969_n8174.t2 VPB.t35 sky130_fd_pr__pfet_g5v0d10v5 ad=0.1218 pd=1.42 as=0.1218 ps=1.42 w=0.42 l=0.5
X33 rseg_4_routing_0/rseg_4_v3_0.v27.t2 rseg_4_routing_0/rseg_4_v3_0.v26.t2 GND.t4 sky130_fd_pr__res_xhigh_po_1p41 l=0.76
X34 rseg_4_routing_0/rseg_4_v3_0.v51.t2 rseg_4_routing_0/rseg_4_v3_0.v50.t2 GND.t3 sky130_fd_pr__res_xhigh_po_1p41 l=1.37
X35 GND.t25 GND.t26 GND.t3 sky130_fd_pr__res_xhigh_po_1p41 l=1.27
X36 rseg_4_routing_0/rseg_4_v3_0.v3.t1 rseg_4_routing_0/rseg_4_v3_0.v2.t1 GND.t20 sky130_fd_pr__res_xhigh_po_1p41 l=0.61
X37 a_31507_n8174.t4 DEC2.t4 rseg_4_routing_0/rseg_4_v3_0.v38.t2 VPB.t93 sky130_fd_pr__pfet_g5v0d10v5 ad=0.1218 pd=1.42 as=0.1218 ps=1.42 w=0.42 l=0.5
X38 rseg_4_routing_0/rseg_4_v3_0.v53.t1 rseg_4_routing_0/rseg_4_v3_0.v52.t0 GND.t3 sky130_fd_pr__res_xhigh_po_1p41 l=1.48
X39 rseg_4_routing_0/rseg_4_v3_0.v27.t0 rseg_4_routing_0/rseg_4_v3_0.v28.t0 GND.t4 sky130_fd_pr__res_xhigh_po_1p41 l=0.81
X40 a_36846_n4393.t1 b2.t0 a_34638_n5474.t1 VPB.t54 sky130_fd_pr__pfet_g5v0d10v5 ad=0.1218 pd=1.42 as=0.1218 ps=1.42 w=0.42 l=0.5
X41 rseg_4_routing_0/rseg_4_v3_0.v51.t1 DEC3.t4 a_30521_n8174.t1 VPB.t32 sky130_fd_pr__pfet_g5v0d10v5 ad=0.1218 pd=1.42 as=0.1218 ps=1.42 w=0.42 l=0.5
X42 a_32529_n6738.t4 DEC0.t1 rseg_4_routing_0/rseg_4_v3_0.v12.t0 VPB.t81 sky130_fd_pr__pfet_g5v0d10v5 ad=0.1218 pd=1.42 as=0.1218 ps=1.42 w=0.42 l=0.5
X43 rseg_4_routing_0/rseg_4_v3_0.v18.t1 DEC1.t3 a_30245_n8174.t2 VPB.t13 sky130_fd_pr__pfet_g5v0d10v5 ad=0.1218 pd=1.42 as=0.1218 ps=1.42 w=0.42 l=0.5
X44 GND.t39 GND.t40 GND.t3 sky130_fd_pr__res_xhigh_po_1p41 l=1.63
X45 rseg_4_routing_0/rseg_4_v3_0.v41.t1 rseg_4_routing_0/rseg_4_v3_0.v40.t1 GND.t15 sky130_fd_pr__res_xhigh_po_1p41 l=1.02
X46 rseg_4_routing_0/rseg_4_v3_0.v31.t1 rseg_4_routing_0/rseg_4_v3_0.v32.t0 GND.t4 sky130_fd_pr__res_xhigh_po_1p41 l=0.81
X47 a_33357_n6738.t0 DEC0.t2 rseg_4_routing_0/rseg_4_v3_0.v15.t0 VPB.t12 sky130_fd_pr__pfet_g5v0d10v5 ad=0.1218 pd=1.42 as=0.1218 ps=1.42 w=0.42 l=0.5
X48 rseg_4_routing_0/rseg_4_v3_0.v10.t0 DEC0.t3 a_31819_n6738.t0 VPB.t48 sky130_fd_pr__pfet_g5v0d10v5 ad=0.1218 pd=1.42 as=0.1218 ps=1.42 w=0.42 l=0.5
X49 rseg_4_routing_0/rseg_4_v3_0.v55.t0 rseg_4_routing_0/rseg_4_v3_0.v54.t1 GND.t3 sky130_fd_pr__res_xhigh_po_1p41 l=1.58
X50 a_35686_n4393.t2 b0.t0 VOUT.t1 VPB.t83 sky130_fd_pr__pfet_g5v0d10v5 ad=0.1218 pd=1.42 as=0.1218 ps=1.42 w=0.42 l=0.5
X51 rseg_4_routing_0/rseg_4_v3_0.v39.t0 rseg_4_routing_0/rseg_4_v3_0.v38.t1 GND.t7 sky130_fd_pr__res_xhigh_po_1p41 l=0.96
X52 a_36266_n4393.t0 b2.t1 a_35190_n5474.t1 VPB.t10 sky130_fd_pr__pfet_g5v0d10v5 ad=0.1218 pd=1.42 as=0.1218 ps=1.42 w=0.42 l=0.5
X53 rseg_4_routing_0/rseg_4_v3_0.v45.t1 rseg_4_routing_0/rseg_4_v3_0.v46.t0 GND.t15 sky130_fd_pr__res_xhigh_po_1p41 l=1.17
X54 a_31231_n8174.t1 DEC3.t5 rseg_4_routing_0/rseg_4_v3_0.v53.t2 VPB.t65 sky130_fd_pr__pfet_g5v0d10v5 ad=0.1218 pd=1.42 as=0.1218 ps=1.42 w=0.42 l=0.5
X55 rseg_4_routing_0/rseg_4_v3_0.v49.t2 rseg_4_routing_0/rseg_4_v3_0.v48.t2 GND.t3 sky130_fd_pr__res_xhigh_po_1p41 l=1.27
X56 a_30955_n8174.t2 DEC1.t4 rseg_4_routing_0/rseg_4_v3_0.v20.t1 VPB.t42 sky130_fd_pr__pfet_g5v0d10v5 ad=0.1218 pd=1.42 as=0.1218 ps=1.42 w=0.42 l=0.5
X57 a_31783_n8174.t2 DEC1.t5 rseg_4_routing_0/rseg_4_v3_0.v23.t1 VPB.t51 sky130_fd_pr__pfet_g5v0d10v5 ad=0.1218 pd=1.42 as=0.1218 ps=1.42 w=0.42 l=0.5
X58 rseg_4_routing_0/rseg_4_v3_0.v42.t2 DEC2.t5 a_31819_n6738.t4 VPB.t37 sky130_fd_pr__pfet_g5v0d10v5 ad=0.1218 pd=1.42 as=0.1218 ps=1.42 w=0.42 l=0.5
X59 rseg_4_routing_0/rseg_4_v3_0.v25.t2 DEC1.t6 a_31543_n6738.t4 VPB.t56 sky130_fd_pr__pfet_g5v0d10v5 ad=0.1218 pd=1.42 as=0.1218 ps=1.42 w=0.42 l=0.5
X60 rseg_4_routing_0/rseg_4_v3_0.v53.t0 rseg_4_routing_0/rseg_4_v3_0.v54.t0 GND.t3 sky130_fd_pr__res_xhigh_po_1p41 l=1.48
X61 a_32529_n6738.t2 DEC1.t7 rseg_4_routing_0/rseg_4_v3_0.v28.t1 VPB.t29 sky130_fd_pr__pfet_g5v0d10v5 ad=0.1218 pd=1.42 as=0.1218 ps=1.42 w=0.42 l=0.5
X62 a_36570_n4393.t2 b1.t1 a_35382_n4393.t1 VPB.t66 sky130_fd_pr__pfet_g5v0d10v5 ad=0.1218 pd=1.42 as=0.1218 ps=1.42 w=0.42 l=0.5
X63 rseg_4_routing_0/rseg_4_v3_0.v29.t2 rseg_4_routing_0/rseg_4_v3_0.v28.t2 GND.t4 sky130_fd_pr__res_xhigh_po_1p41 l=0.81
X64 a_32095_n6738.t3 bb3.t2 a_35466_n5474.t2 VPB.t60 sky130_fd_pr__pfet_g5v0d10v5 ad=0.1218 pd=1.42 as=0.1218 ps=1.42 w=0.42 l=0.5
X65 rseg_4_routing_0/rseg_4_v3_0.v58.t1 DEC3.t6 a_31819_n6738.t1 VPB.t15 sky130_fd_pr__pfet_g5v0d10v5 ad=0.1218 pd=1.42 as=0.1218 ps=1.42 w=0.42 l=0.5
X66 GND.t23 GND.t24 GND.t15 sky130_fd_pr__res_xhigh_po_1p41 l=1.02
X67 a_33357_n6738.t2 DEC1.t8 rseg_4_routing_0/rseg_4_v3_0.v31.t0 VPB.t63 sky130_fd_pr__pfet_g5v0d10v5 ad=0.1218 pd=1.42 as=0.1218 ps=1.42 w=0.42 l=0.5
X68 rseg_4_routing_0/rseg_4_v3_0.v15.t2 rseg_4_routing_0/rseg_4_v3_0.v14.t2 GND.t12 sky130_fd_pr__res_xhigh_po_1p41 l=0.66
X69 a_32529_n6738.t0 DEC2.t6 rseg_4_routing_0/rseg_4_v3_0.v44.t1 VPB.t50 sky130_fd_pr__pfet_g5v0d10v5 ad=0.1218 pd=1.42 as=0.1218 ps=1.42 w=0.42 l=0.5
X70 rseg_4_routing_0/rseg_4_v3_0.v57.t1 rseg_4_routing_0/rseg_4_v3_0.v58.t0 GND.t0 sky130_fd_pr__res_xhigh_po_1p41 l=1.78
X71 rseg_4_routing_0/rseg_4_v3_0.v49.t0 DEC3.t7 a_29969_n8174.t1 VPB.t5 sky130_fd_pr__pfet_g5v0d10v5 ad=0.1218 pd=1.42 as=0.1218 ps=1.42 w=0.42 l=0.5
X72 rseg_4_routing_0/rseg_4_v3_0.v26.t1 DEC1.t9 a_31819_n6738.t2 VPB.t90 sky130_fd_pr__pfet_g5v0d10v5 ad=0.1218 pd=1.42 as=0.1218 ps=1.42 w=0.42 l=0.5
X73 a_36570_n4393.t0 bb2.t1 a_35860_n5474.t0 VPB.t82 sky130_fd_pr__pfet_g5v0d10v5 ad=0.1218 pd=1.42 as=0.1218 ps=1.42 w=0.42 l=0.5
X74 a_32805_n6738.t3 DEC3.t8 rseg_4_routing_0/rseg_4_v3_0.v61.t0 VPB.t58 sky130_fd_pr__pfet_g5v0d10v5 ad=0.1218 pd=1.42 as=0.1218 ps=1.42 w=0.42 l=0.5
X75 rseg_4_routing_0/rseg_4_v3_0.v1.t1 DEC0.t4 a_29969_n8174.t0 VPB.t55 sky130_fd_pr__pfet_g5v0d10v5 ad=0.1218 pd=1.42 as=0.1218 ps=1.42 w=0.42 l=0.5
X76 rseg_4_routing_0/rseg_4_v3_0.v56.t1 DEC3.t9 a_31267_n6738.t1 VPB.t43 sky130_fd_pr__pfet_g5v0d10v5 ad=0.1218 pd=1.42 as=0.1218 ps=1.42 w=0.42 l=0.5
X77 rseg_4_routing_0/rseg_4_v3_0.v7.t1 rseg_4_routing_0/rseg_4_v3_0.v8.t1 GND.t20 sky130_fd_pr__res_xhigh_po_1p41 l=0.61
X78 a_33357_n6738.t4 DEC2.t7 rseg_4_routing_0/rseg_4_v3_0.v47.t0 VPB.t36 sky130_fd_pr__pfet_g5v0d10v5 ad=0.1218 pd=1.42 as=0.1218 ps=1.42 w=0.42 l=0.5
X79 V0.t0 DEC0.t5 a_29693_n8174.t0 VPB.t3 sky130_fd_pr__pfet_g5v0d10v5 ad=0.1218 pd=1.42 as=0.1218 ps=1.42 w=0.42 l=0.5
X80 rseg_4_routing_0/rseg_4_v3_0.v61.t2 rseg_4_routing_0/rseg_4_v3_0.v62.t2 GND.t0 sky130_fd_pr__res_xhigh_po_1p41 l=2.4
X81 a_35860_n5474.t2 bb3.t3 a_32805_n6738.t1 VPB.t45 sky130_fd_pr__pfet_g5v0d10v5 ad=0.1218 pd=1.42 as=0.1218 ps=1.42 w=0.42 l=0.5
X82 rseg_4_routing_0/rseg_4_v3_0.v37.t0 rseg_4_routing_0/rseg_4_v3_0.v38.t0 GND.t7 sky130_fd_pr__res_xhigh_po_1p41 l=0.96
X83 rseg_4_routing_0/rseg_4_v3_0.v33.t2 rseg_4_routing_0/rseg_4_v3_0.v34.t1 GND.t7 sky130_fd_pr__res_xhigh_po_1p41 l=0.91
X84 rseg_4_routing_0/rseg_4_v3_0.v35.t0 rseg_4_routing_0/rseg_4_v3_0.v36.t0 GND.t7 sky130_fd_pr__res_xhigh_po_1p41 l=0.96
X85 GND.t13 GND.t14 GND.t12 sky130_fd_pr__res_xhigh_po_1p41 l=0.66
X86 rseg_4_routing_0/rseg_4_v3_0.v23.t2 rseg_4_routing_0/rseg_4_v3_0.v24.t2 GND.t27 sky130_fd_pr__res_xhigh_po_1p41 l=0.76
X87 rseg_4_routing_0/rseg_4_v3_0.v50.t0 DEC3.t10 a_30245_n8174.t1 VPB.t87 sky130_fd_pr__pfet_g5v0d10v5 ad=0.1218 pd=1.42 as=0.1218 ps=1.42 w=0.42 l=0.5
X88 rseg_4_routing_0/rseg_4_v3_0.v19.t1 rseg_4_routing_0/rseg_4_v3_0.v18.t0 GND.t32 sky130_fd_pr__res_xhigh_po_1p41 l=0.71
X89 rseg_4_routing_0/rseg_4_v3_0.v34.t0 DEC2.t8 a_30245_n8174.t4 VPB.t26 sky130_fd_pr__pfet_g5v0d10v5 ad=0.1218 pd=1.42 as=0.1218 ps=1.42 w=0.42 l=0.5
X90 rseg_4_routing_0/rseg_4_v3_0.v11.t2 rseg_4_routing_0/rseg_4_v3_0.v10.t2 GND.t12 sky130_fd_pr__res_xhigh_po_1p41 l=0.61
X91 rseg_4_routing_0/rseg_4_v3_0.v29.t0 rseg_4_routing_0/rseg_4_v3_0.v30.t0 GND.t4 sky130_fd_pr__res_xhigh_po_1p41 l=0.81
X92 rseg_4_routing_0/rseg_4_v3_0.v13.t2 rseg_4_routing_0/rseg_4_v3_0.v12.t1 GND.t12 sky130_fd_pr__res_xhigh_po_1p41 l=0.61
X93 a_34638_n5474.t0 b3.t1 a_29693_n8174.t3 VPB.t76 sky130_fd_pr__pfet_g5v0d10v5 ad=0.1218 pd=1.42 as=0.1218 ps=1.42 w=0.42 l=0.5
X94 a_31507_n8174.t0 DEC0.t6 rseg_4_routing_0/rseg_4_v3_0.v6.t0 VPB.t91 sky130_fd_pr__pfet_g5v0d10v5 ad=0.1218 pd=1.42 as=0.1218 ps=1.42 w=0.42 l=0.5
X95 a_31231_n8174.t4 DEC2.t9 rseg_4_routing_0/rseg_4_v3_0.v37.t2 VPB.t49 sky130_fd_pr__pfet_g5v0d10v5 ad=0.1218 pd=1.42 as=0.1218 ps=1.42 w=0.42 l=0.5
X96 rseg_4_routing_0/rseg_4_v3_0.v32.t1 DEC2.t10 a_29693_n8174.t4 VPB.t20 sky130_fd_pr__pfet_g5v0d10v5 ad=0.1218 pd=1.42 as=0.1218 ps=1.42 w=0.42 l=0.5
X97 rseg_4_routing_0/rseg_4_v3_0.v8.t0 DEC0.t7 a_31267_n6738.t0 VPB.t11 sky130_fd_pr__pfet_g5v0d10v5 ad=0.1218 pd=1.42 as=0.1218 ps=1.42 w=0.42 l=0.5
X98 rseg_4_routing_0/rseg_4_v3_0.v9.t1 rseg_4_routing_0/rseg_4_v3_0.v10.t1 GND.t12 sky130_fd_pr__res_xhigh_po_1p41 l=0.66
X99 a_35466_n5474.t0 b3.t2 a_30521_n8174.t3 VPB.t75 sky130_fd_pr__pfet_g5v0d10v5 ad=0.1218 pd=1.42 as=0.1218 ps=1.42 w=0.42 l=0.5
X100 rseg_4_routing_0/rseg_4_v3_0.v25.t1 rseg_4_routing_0/rseg_4_v3_0.v24.t0 GND.t4 sky130_fd_pr__res_xhigh_po_1p41 l=0.76
X101 a_35990_n4393.t2 bb1.t1 a_35382_n4393.t2 VPB.t28 sky130_fd_pr__pfet_g5v0d10v5 ad=0.1218 pd=1.42 as=0.1218 ps=1.42 w=0.42 l=0.5
X102 rseg_4_routing_0/rseg_4_v3_0.v11.t1 rseg_4_routing_0/rseg_4_v3_0.v12.t2 GND.t12 sky130_fd_pr__res_xhigh_po_1p41 l=0.66
X103 rseg_4_routing_0/rseg_4_v3_0.v11.t0 DEC0.t8 a_32095_n6738.t0 VPB.t40 sky130_fd_pr__pfet_g5v0d10v5 ad=0.1218 pd=1.42 as=0.1218 ps=1.42 w=0.42 l=0.5
X104 V63.t0 rseg_4_routing_0/rseg_4_v3_0.v62.t0 GND.t0 sky130_fd_pr__res_xhigh_po_1p41 l=2.55
X105 a_30955_n8174.t0 DEC0.t9 rseg_4_routing_0/rseg_4_v3_0.v4.t0 VPB.t47 sky130_fd_pr__pfet_g5v0d10v5 ad=0.1218 pd=1.42 as=0.1218 ps=1.42 w=0.42 l=0.5
X106 a_31507_n8174.t3 b3.t3 a_36136_n5474.t1 VPB.t74 sky130_fd_pr__pfet_g5v0d10v5 ad=0.1218 pd=1.42 as=0.1218 ps=1.42 w=0.42 l=0.5
X107 rseg_4_routing_0/rseg_4_v3_0.v5.t2 rseg_4_routing_0/rseg_4_v3_0.v6.t1 GND.t20 sky130_fd_pr__res_xhigh_po_1p41 l=0.55
X108 rseg_4_routing_0/rseg_4_v3_0.v15.t1 rseg_4_routing_0/rseg_4_v3_0.v16.t0 GND.t12 sky130_fd_pr__res_xhigh_po_1p41 l=0.66
X109 a_31543_n6738.t0 bb3.t4 a_34914_n5474.t2 VPB.t1 sky130_fd_pr__pfet_g5v0d10v5 ad=0.1218 pd=1.42 as=0.1218 ps=1.42 w=0.42 l=0.5
X110 a_31231_n8174.t2 DEC1.t10 rseg_4_routing_0/rseg_4_v3_0.v21.t1 VPB.t78 sky130_fd_pr__pfet_g5v0d10v5 ad=0.1218 pd=1.42 as=0.1218 ps=1.42 w=0.42 l=0.5
X111 rseg_4_routing_0/rseg_4_v3_0.v3.t2 rseg_4_routing_0/rseg_4_v3_0.v4.t2 GND.t20 sky130_fd_pr__res_xhigh_po_1p41 l=0.55
X112 a_31783_n8174.t3 DEC2.t11 rseg_4_routing_0/rseg_4_v3_0.v39.t1 VPB.t69 sky130_fd_pr__pfet_g5v0d10v5 ad=0.1218 pd=1.42 as=0.1218 ps=1.42 w=0.42 l=0.5
X113 a_35990_n4393.t1 b2.t2 a_35466_n5474.t1 VPB.t84 sky130_fd_pr__pfet_g5v0d10v5 ad=0.1218 pd=1.42 as=0.1218 ps=1.42 w=0.42 l=0.5
X114 a_31783_n8174.t0 DEC0.t10 rseg_4_routing_0/rseg_4_v3_0.v7.t0 VPB.t21 sky130_fd_pr__pfet_g5v0d10v5 ad=0.1218 pd=1.42 as=0.1218 ps=1.42 w=0.42 l=0.5
X115 GND.t37 GND.t38 GND.t20 sky130_fd_pr__res_xhigh_po_1p41 l=0.61
X116 GND.t33 GND.t34 GND.t27 sky130_fd_pr__res_xhigh_po_1p41 l=0.71
X117 a_31507_n8174.t1 DEC3.t11 rseg_4_routing_0/rseg_4_v3_0.v54.t2 VPB.t31 sky130_fd_pr__pfet_g5v0d10v5 ad=0.1218 pd=1.42 as=0.1218 ps=1.42 w=0.42 l=0.5
X118 rseg_4_routing_0/rseg_4_v3_0.v16.t2 DEC1.t11 a_29693_n8174.t2 VPB.t2 sky130_fd_pr__pfet_g5v0d10v5 ad=0.1218 pd=1.42 as=0.1218 ps=1.42 w=0.42 l=0.5
X119 a_31231_n8174.t3 b3.t4 a_35860_n5474.t1 VPB.t73 sky130_fd_pr__pfet_g5v0d10v5 ad=0.1218 pd=1.42 as=0.1218 ps=1.42 w=0.42 l=0.5
X120 GND.t1 GND.t2 GND.t0 sky130_fd_pr__res_xhigh_po_1p41 l=2.55
X121 a_32805_n6738.t2 DEC0.t11 rseg_4_routing_0/rseg_4_v3_0.v13.t0 VPB.t46 sky130_fd_pr__pfet_g5v0d10v5 ad=0.1218 pd=1.42 as=0.1218 ps=1.42 w=0.42 l=0.5
X122 rseg_4_routing_0/rseg_4_v3_0.v19.t2 DEC1.t12 a_30521_n8174.t2 VPB.t4 sky130_fd_pr__pfet_g5v0d10v5 ad=0.1218 pd=1.42 as=0.1218 ps=1.42 w=0.42 l=0.5
X123 GND.t35 GND.t36 GND.t27 sky130_fd_pr__res_xhigh_po_1p41 l=0.76
X124 rseg_4_routing_0/rseg_4_v3_0.v41.t0 rseg_4_routing_0/rseg_4_v3_0.v42.t0 GND.t15 sky130_fd_pr__res_xhigh_po_1p41 l=1.02
X125 a_31819_n6738.t3 bb3.t5 a_35190_n5474.t2 VPB.t18 sky130_fd_pr__pfet_g5v0d10v5 ad=0.1218 pd=1.42 as=0.1218 ps=1.42 w=0.42 l=0.5
X126 a_33081_n6738.t2 DEC0.t12 rseg_4_routing_0/rseg_4_v3_0.v14.t0 VPB.t52 sky130_fd_pr__pfet_g5v0d10v5 ad=0.1218 pd=1.42 as=0.1218 ps=1.42 w=0.42 l=0.5
X127 rseg_4_routing_0/rseg_4_v3_0.v21.t2 rseg_4_routing_0/rseg_4_v3_0.v20.t2 GND.t27 sky130_fd_pr__res_xhigh_po_1p41 l=0.71
X128 a_32805_n6738.t0 DEC2.t12 rseg_4_routing_0/rseg_4_v3_0.v45.t2 VPB.t19 sky130_fd_pr__pfet_g5v0d10v5 ad=0.1218 pd=1.42 as=0.1218 ps=1.42 w=0.42 l=0.5
X129 rseg_4_routing_0/rseg_4_v3_0.v59.t1 DEC3.t12 a_32095_n6738.t1 VPB.t64 sky130_fd_pr__pfet_g5v0d10v5 ad=0.1218 pd=1.42 as=0.1218 ps=1.42 w=0.42 l=0.5
X130 GND.t30 GND.t31 GND.t4 sky130_fd_pr__res_xhigh_po_1p41 l=0.76
X131 rseg_4_routing_0/rseg_4_v3_0.v17.t0 rseg_4_routing_0/rseg_4_v3_0.v16.t1 GND.t27 sky130_fd_pr__res_xhigh_po_1p41 l=0.71
X132 rseg_4_routing_0/rseg_4_v3_0.v40.t0 DEC2.t13 a_31267_n6738.t4 VPB.t16 sky130_fd_pr__pfet_g5v0d10v5 ad=0.1218 pd=1.42 as=0.1218 ps=1.42 w=0.42 l=0.5
X133 rseg_4_routing_0/rseg_4_v3_0.v59.t0 rseg_4_routing_0/rseg_4_v3_0.v60.t0 GND.t0 sky130_fd_pr__res_xhigh_po_1p41 l=2.04
X134 a_35382_n4393.t0 bb0.t0 VOUT.t0 VPB.t24 sky130_fd_pr__pfet_g5v0d10v5 ad=0.1218 pd=1.42 as=0.1218 ps=1.42 w=0.42 l=0.5
X135 GND.t10 GND.t11 GND.t0 sky130_fd_pr__res_xhigh_po_1p41 l=2.55
X136 rseg_4_routing_0/rseg_4_v3_0.v43.t1 DEC2.t14 a_32095_n6738.t4 VPB.t92 sky130_fd_pr__pfet_g5v0d10v5 ad=0.1218 pd=1.42 as=0.1218 ps=1.42 w=0.42 l=0.5
X137 rseg_4_routing_0/rseg_4_v3_0.v48.t0 DEC3.t13 a_29693_n8174.t1 VPB.t14 sky130_fd_pr__pfet_g5v0d10v5 ad=0.1218 pd=1.42 as=0.1218 ps=1.42 w=0.42 l=0.5
X138 a_36846_n4393.t0 bb2.t2 a_35584_n5474.t0 VPB.t23 sky130_fd_pr__pfet_g5v0d10v5 ad=0.1218 pd=1.42 as=0.1218 ps=1.42 w=0.42 l=0.5
X139 rseg_4_routing_0/rseg_4_v3_0.v43.t2 rseg_4_routing_0/rseg_4_v3_0.v44.t2 GND.t15 sky130_fd_pr__res_xhigh_po_1p41 l=1.12
X140 a_36136_n5474.t2 bb3.t6 a_33081_n6738.t1 VPB.t33 sky130_fd_pr__pfet_g5v0d10v5 ad=0.1218 pd=1.42 as=0.1218 ps=1.42 w=0.42 l=0.5
X141 rseg_4_routing_0/rseg_4_v3_0.v57.t0 rseg_4_routing_0/rseg_4_v3_0.v56.t0 GND.t0 sky130_fd_pr__res_xhigh_po_1p41 l=1.73
X142 rseg_4_routing_0/rseg_4_v3_0.v17.t2 rseg_4_routing_0/rseg_4_v3_0.v18.t2 GND.t27 sky130_fd_pr__res_xhigh_po_1p41 l=0.66
X143 rseg_4_routing_0/rseg_4_v3_0.v59.t2 rseg_4_routing_0/rseg_4_v3_0.v58.t2 GND.t0 sky130_fd_pr__res_xhigh_po_1p41 l=1.94
X144 rseg_4_routing_0/rseg_4_v3_0.v1.t2 rseg_4_routing_0/rseg_4_v3_0.v2.t2 GND.t20 sky130_fd_pr__res_xhigh_po_1p41 l=0.55
X145 rseg_4_routing_0/rseg_4_v3_0.v31.t2 rseg_4_routing_0/rseg_4_v3_0.v30.t2 GND.t4 sky130_fd_pr__res_xhigh_po_1p41 l=0.86
X146 rseg_4_routing_0/rseg_4_v3_0.v35.t2 rseg_4_routing_0/rseg_4_v3_0.v34.t2 GND.t7 sky130_fd_pr__res_xhigh_po_1p41 l=0.86
X147 a_36266_n4393.t1 bb2.t3 a_36136_n5474.t0 VPB.t22 sky130_fd_pr__pfet_g5v0d10v5 ad=0.1218 pd=1.42 as=0.1218 ps=1.42 w=0.42 l=0.5
X148 rseg_4_routing_0/rseg_4_v3_0.v2.t0 DEC0.t13 a_30245_n8174.t0 VPB.t80 sky130_fd_pr__pfet_g5v0d10v5 ad=0.1218 pd=1.42 as=0.1218 ps=1.42 w=0.42 l=0.5
X149 rseg_4_routing_0/rseg_4_v3_0.v7.t2 rseg_4_routing_0/rseg_4_v3_0.v6.t2 GND.t20 sky130_fd_pr__res_xhigh_po_1p41 l=0.61
X150 rseg_4_routing_0/rseg_4_v3_0.v13.t1 rseg_4_routing_0/rseg_4_v3_0.v14.t1 GND.t12 sky130_fd_pr__res_xhigh_po_1p41 l=0.66
X151 a_36570_n4393.t1 b2.t3 a_34914_n5474.t1 VPB.t9 sky130_fd_pr__pfet_g5v0d10v5 ad=0.1218 pd=1.42 as=0.1218 ps=1.42 w=0.42 l=0.5
X152 a_31231_n8174.t0 DEC0.t14 rseg_4_routing_0/rseg_4_v3_0.v5.t0 VPB.t7 sky130_fd_pr__pfet_g5v0d10v5 ad=0.1218 pd=1.42 as=0.1218 ps=1.42 w=0.42 l=0.5
X153 rseg_4_routing_0/rseg_4_v3_0.v21.t0 rseg_4_routing_0/rseg_4_v3_0.v22.t0 GND.t27 sky130_fd_pr__res_xhigh_po_1p41 l=0.71
X154 rseg_4_routing_0/rseg_4_v3_0.v5.t1 rseg_4_routing_0/rseg_4_v3_0.v4.t1 GND.t20 sky130_fd_pr__res_xhigh_po_1p41 l=0.61
X155 GND.t28 GND.t29 GND.t20 sky130_fd_pr__res_xhigh_po_1p41 l=0.55
X156 a_30955_n8174.t1 DEC3.t14 rseg_4_routing_0/rseg_4_v3_0.v52.t2 VPB.t57 sky130_fd_pr__pfet_g5v0d10v5 ad=0.1218 pd=1.42 as=0.1218 ps=1.42 w=0.42 l=0.5
X157 rseg_4_routing_0/rseg_4_v3_0.v19.t0 rseg_4_routing_0/rseg_4_v3_0.v20.t0 GND.t27 sky130_fd_pr__res_xhigh_po_1p41 l=0.71
X158 a_35190_n5474.t0 b3.t5 a_30245_n8174.t3 VPB.t72 sky130_fd_pr__pfet_g5v0d10v5 ad=0.1218 pd=1.42 as=0.1218 ps=1.42 w=0.42 l=0.5
X159 rseg_4_routing_0/rseg_4_v3_0.v9.t2 rseg_4_routing_0/rseg_4_v3_0.v8.t2 GND.t12 sky130_fd_pr__res_xhigh_po_1p41 l=0.61
X160 rseg_4_routing_0/rseg_4_v3_0.v23.t0 rseg_4_routing_0/rseg_4_v3_0.v22.t1 GND.t27 sky130_fd_pr__res_xhigh_po_1p41 l=0.76
X161 a_31783_n8174.t1 DEC3.t15 rseg_4_routing_0/rseg_4_v3_0.v55.t1 VPB.t30 sky130_fd_pr__pfet_g5v0d10v5 ad=0.1218 pd=1.42 as=0.1218 ps=1.42 w=0.42 l=0.5
X162 rseg_4_routing_0/rseg_4_v3_0.v35.t1 DEC2.t15 a_30521_n8174.t4 VPB.t25 sky130_fd_pr__pfet_g5v0d10v5 ad=0.1218 pd=1.42 as=0.1218 ps=1.42 w=0.42 l=0.5
X163 a_31507_n8174.t2 DEC1.t13 rseg_4_routing_0/rseg_4_v3_0.v22.t2 VPB.t89 sky130_fd_pr__pfet_g5v0d10v5 ad=0.1218 pd=1.42 as=0.1218 ps=1.42 w=0.42 l=0.5
X164 GND.t41 GND.t42 GND.t15 sky130_fd_pr__res_xhigh_po_1p41 l=1.22
X165 a_34914_n5474.t0 b3.t6 a_29969_n8174.t3 VPB.t71 sky130_fd_pr__pfet_g5v0d10v5 ad=0.1218 pd=1.42 as=0.1218 ps=1.42 w=0.42 l=0.5
X166 a_31267_n6738.t3 bb3.t7 a_34638_n5474.t2 VPB.t86 sky130_fd_pr__pfet_g5v0d10v5 ad=0.1218 pd=1.42 as=0.1218 ps=1.42 w=0.42 l=0.5
X167 rseg_4_routing_0/rseg_4_v3_0.v24.t1 DEC1.t14 a_31267_n6738.t2 VPB.t39 sky130_fd_pr__pfet_g5v0d10v5 ad=0.1218 pd=1.42 as=0.1218 ps=1.42 w=0.42 l=0.5
X168 rseg_4_routing_0/rseg_4_v3_0.v9.t0 DEC0.t15 a_31543_n6738.t2 VPB.t61 sky130_fd_pr__pfet_g5v0d10v5 ad=0.1218 pd=1.42 as=0.1218 ps=1.42 w=0.42 l=0.5
X169 GND.t16 GND.t17 GND.t0 sky130_fd_pr__res_xhigh_po_1p41 l=1.73
X170 rseg_4_routing_0/rseg_4_v3_0.v45.t0 rseg_4_routing_0/rseg_4_v3_0.v44.t0 GND.t15 sky130_fd_pr__res_xhigh_po_1p41 l=1.12
X171 a_30955_n8174.t3 b3.t7 a_35584_n5474.t1 VPB.t70 sky130_fd_pr__pfet_g5v0d10v5 ad=0.1218 pd=1.42 as=0.1218 ps=1.42 w=0.42 l=0.5
X172 rseg_4_routing_0/rseg_4_v3_0.v27.t1 DEC1.t15 a_32095_n6738.t2 VPB.t41 sky130_fd_pr__pfet_g5v0d10v5 ad=0.1218 pd=1.42 as=0.1218 ps=1.42 w=0.42 l=0.5
X173 rseg_4_routing_0/rseg_4_v3_0.v25.t0 rseg_4_routing_0/rseg_4_v3_0.v26.t0 GND.t4 sky130_fd_pr__res_xhigh_po_1p41 l=0.76
R0 rseg_4_routing_0/rseg_4_v3_0.v39 rseg_4_routing_0/rseg_4_v3_0.v39.t1 674.658
R1 rseg_4_routing_0/rseg_4_v3_0.v39.n0 rseg_4_routing_0/rseg_4_v3_0.v39.t2 10.7653
R2 rseg_4_routing_0/rseg_4_v3_0.v39.n0 rseg_4_routing_0/rseg_4_v3_0.v39.t0 10.7376
R3 rseg_4_routing_0/rseg_4_v3_0.v39 rseg_4_routing_0/rseg_4_v3_0.v39.n0 4.0963
R4 rseg_4_routing_0/rseg_4_v3_0.v40 rseg_4_routing_0/rseg_4_v3_0.v40.t0 676.321
R5 rseg_4_routing_0/rseg_4_v3_0.v40.n0 rseg_4_routing_0/rseg_4_v3_0.v40.t1 13.4994
R6 rseg_4_routing_0/rseg_4_v3_0.v40.n0 rseg_4_routing_0/rseg_4_v3_0.v40.t2 10.7723
R7 rseg_4_routing_0/rseg_4_v3_0.v40 rseg_4_routing_0/rseg_4_v3_0.v40.n0 4.72836
R8 GND.n43 GND.n33 83508.7
R9 GND.n37 GND.n36 41345.1
R10 GND.n31 GND.n2 27409.3
R11 GND.n48 GND.n2 27409.3
R12 GND.n48 GND.n3 27406
R13 GND.n31 GND.n3 27406
R14 GND.n37 GND.n33 11233.5
R15 GND.n44 GND.n32 10335.8
R16 GND.n45 GND.n44 9944.8
R17 GND.n41 GND.n32 9286.94
R18 GND.n41 GND.n40 9174.63
R19 GND.n43 GND.n42 9053.82
R20 GND.n39 GND.n36 7714.56
R21 GND.n39 GND.n38 7518.99
R22 GND.n40 GND.n39 7478.84
R23 GND.n38 GND.n34 5608.79
R24 GND.n38 GND.n37 5016.48
R25 GND.n42 GND.n34 4715.04
R26 GND.n46 GND.n32 4451.25
R27 GND.n42 GND.n41 3889.56
R28 GND.n40 GND.n35 3752.03
R29 GND.n34 GND.n33 3562.79
R30 GND.n44 GND.n43 3153.67
R31 GND.t0 GND.t3 2122.95
R32 GND.t3 GND.t15 1868.79
R33 GND.n35 GND.t7 1788.29
R34 GND.n46 GND.t27 1746.89
R35 GND.t32 GND.t12 1737.69
R36 GND.n45 GND.t20 1727.34
R37 GND.n47 GND.t4 1239.73
R38 GND.t20 GND.n3 996.568
R39 GND.n36 GND.n2 966.668
R40 GND.n47 GND.t7 540.513
R41 GND.n14 GND.n13 475.536
R42 GND.n22 GND.n0 459.964
R43 GND.n13 GND.n12 458.043
R44 GND.n58 GND.n0 361.601
R45 GND.n36 GND.t0 242.656
R46 GND.n16 GND.n15 180.087
R47 GND.n52 GND.n51 171.339
R48 GND.n28 GND.n27 171.339
R49 GND.n20 GND.n19 171.126
R50 GND.n56 GND.n55 170.274
R51 GND.n7 GND.n6 170.274
R52 GND.n11 GND.n10 170.274
R53 GND.n24 GND.n23 170.06
R54 GND.n54 GND.n53 151.5
R55 GND.n9 GND.n8 151.5
R56 GND.n26 GND.n25 151.5
R57 GND.n18 GND.n17 148.087
R58 GND.n50 GND.n49 137.47
R59 GND.n12 GND.n11 137.419
R60 GND.n30 GND.n29 136.435
R61 GND.t15 GND.n35 134.554
R62 GND.t4 GND.n46 117.303
R63 GND.n15 GND.n14 102.433
R64 GND.n58 GND.n57 99.6436
R65 GND.n17 GND.n16 98.1667
R66 GND.t12 GND.n45 95.4527
R67 GND.n10 GND.n9 82.8067
R68 GND.n8 GND.n7 80.6733
R69 GND.n19 GND.n18 72.14
R70 GND.n21 GND.n20 72.14
R71 GND.n6 GND.n1 65.3133
R72 GND.n51 GND.n50 63.18
R73 GND.n29 GND.n28 61.0467
R74 GND.n27 GND.n26 61.0467
R75 GND.n53 GND.n52 58.9133
R76 GND.n55 GND.n54 56.78
R77 GND.n25 GND.n24 54.6467
R78 GND.n23 GND.n22 54.6467
R79 GND.n57 GND.n56 52.0867
R80 GND.n5 GND.t11 44.7381
R81 GND.n4 GND.t10 44.7381
R82 GND.n57 GND.t29 39.3159
R83 GND.n56 GND.t28 39.3159
R84 GND.n55 GND.t14 39.3159
R85 GND.n54 GND.t13 39.3159
R86 GND.n53 GND.t34 39.3159
R87 GND.n52 GND.t33 39.3159
R88 GND.n51 GND.t6 39.3159
R89 GND.n50 GND.t5 39.3159
R90 GND.n1 GND.t22 39.3159
R91 GND.n6 GND.t21 39.3159
R92 GND.n7 GND.t42 39.3159
R93 GND.n8 GND.t41 39.3159
R94 GND.n9 GND.t26 39.3159
R95 GND.n10 GND.t25 39.3159
R96 GND.n14 GND.t16 39.3159
R97 GND.n15 GND.t17 39.3159
R98 GND.n16 GND.t39 39.3159
R99 GND.n17 GND.t40 39.3159
R100 GND.n18 GND.t23 39.3159
R101 GND.n19 GND.t24 39.3159
R102 GND.n20 GND.t8 39.3159
R103 GND.n21 GND.t9 39.3159
R104 GND.n29 GND.t30 39.3159
R105 GND.n28 GND.t31 39.3159
R106 GND.n27 GND.t35 39.3159
R107 GND.n26 GND.t36 39.3159
R108 GND.n25 GND.t18 39.3159
R109 GND.n24 GND.t19 39.3159
R110 GND.n23 GND.t37 39.3159
R111 GND.n22 GND.t38 39.3159
R112 GND.n5 GND.t2 35.1381
R113 GND.n4 GND.t1 35.1381
R114 GND.n49 GND.n1 15.0979
R115 GND.n30 GND.n21 13.7851
R116 GND.n13 GND.n2 13.296
R117 GND.n3 GND.n0 13.296
R118 GND GND.n58 6.4005
R119 GND.n11 GND.n5 4.17828
R120 GND.n12 GND.n4 4.17828
R121 GND.n49 GND.n48 3.09574
R122 GND.n48 GND.n47 3.09574
R123 GND.n31 GND.n30 3.09574
R124 GND.n47 GND.n31 3.09574
R125 GND.t27 GND.t32 2.30055
R126 rseg_4_routing_0/rseg_4_v3_0.v1.n0 rseg_4_routing_0/rseg_4_v3_0.v1.t1 663.232
R127 rseg_4_routing_0/rseg_4_v3_0.v1.n0 rseg_4_routing_0/rseg_4_v3_0.v1.t2 10.6701
R128 rseg_4_routing_0/rseg_4_v3_0.v1.t0 rseg_4_routing_0/rseg_4_v3_0.v1.n0 10.5739
R129 V0.n0 V0.t0 668.13
R130 V0.n0 V0.t1 12.1073
R131 V0 V0.n0 0.274355
R132 b3.n0 b3.t1 217.555
R133 b3.n0 b3.t6 216.893
R134 b3.n1 b3.t5 216.893
R135 b3.n2 b3.t2 216.893
R136 b3.n3 b3.t7 216.893
R137 b3.n4 b3.t4 216.893
R138 b3.n5 b3.t3 216.893
R139 b3.n6 b3.t0 216.893
R140 b3.n6 b3.n5 0.663962
R141 b3.n5 b3.n4 0.663962
R142 b3.n4 b3.n3 0.663962
R143 b3.n3 b3.n2 0.663962
R144 b3.n2 b3.n1 0.663962
R145 b3.n1 b3.n0 0.663962
R146 b3 b3.n6 0.226462
R147 a_36412_n5474.n0 a_36412_n5474.t2 671.928
R148 a_36412_n5474.t0 a_36412_n5474.n0 671.475
R149 a_36412_n5474.n0 a_36412_n5474.t1 665.158
R150 a_31783_n8174.n0 a_31783_n8174.t1 673.378
R151 a_31783_n8174.t0 a_31783_n8174.n2 673.005
R152 a_31783_n8174.n1 a_31783_n8174.t4 669.523
R153 a_31783_n8174.n2 a_31783_n8174.t2 666.583
R154 a_31783_n8174.n0 a_31783_n8174.t3 666.583
R155 a_31783_n8174.n2 a_31783_n8174.n1 4.60675
R156 a_31783_n8174.n1 a_31783_n8174.n0 1.95467
R157 VPB.n93 VPB.n89 4436.17
R158 VPB.n93 VPB.n90 4436.17
R159 VPB.n95 VPB.n89 4436.17
R160 VPB.n95 VPB.n90 4436.17
R161 VPB.n101 VPB.n30 2671.14
R162 VPB.n101 VPB.n31 2671.14
R163 VPB.n103 VPB.n30 2671.14
R164 VPB.n103 VPB.n31 2671.14
R165 VPB.n82 VPB.n35 2671.14
R166 VPB.n84 VPB.n35 2671.14
R167 VPB.n84 VPB.n36 2671.14
R168 VPB.n82 VPB.n36 2671.14
R169 VPB.n125 VPB.n13 2671.14
R170 VPB.n125 VPB.n14 2671.14
R171 VPB.n127 VPB.n14 2671.14
R172 VPB.n127 VPB.n13 2671.14
R173 VPB.n117 VPB.n16 2671.14
R174 VPB.n119 VPB.n16 2671.14
R175 VPB.n119 VPB.n17 2671.14
R176 VPB.n117 VPB.n17 2671.14
R177 VPB.n109 VPB.n24 2671.14
R178 VPB.n109 VPB.n25 2671.14
R179 VPB.n111 VPB.n25 2671.14
R180 VPB.n111 VPB.n24 2671.14
R181 VPB.n71 VPB.n67 2671.14
R182 VPB.n73 VPB.n67 2671.14
R183 VPB.n73 VPB.n68 2671.14
R184 VPB.n71 VPB.n68 2671.14
R185 VPB.n63 VPB.n40 2671.14
R186 VPB.n63 VPB.n41 2671.14
R187 VPB.n61 VPB.n40 2671.14
R188 VPB.n61 VPB.n41 2671.14
R189 VPB.n54 VPB.n47 2671.14
R190 VPB.n54 VPB.n52 2671.14
R191 VPB.n56 VPB.n47 2671.14
R192 VPB.n56 VPB.n52 2671.14
R193 VPB.n133 VPB.n8 2671.14
R194 VPB.n133 VPB.n9 2671.14
R195 VPB.n135 VPB.n8 2671.14
R196 VPB.n135 VPB.n9 2671.14
R197 VPB.n142 VPB.n3 2671.14
R198 VPB.n142 VPB.n4 2671.14
R199 VPB.n140 VPB.n3 2671.14
R200 VPB.n140 VPB.n4 2671.14
R201 VPB.n86 VPB.n32 883.577
R202 VPB.n105 VPB.n28 883.577
R203 VPB.n92 VPB.n33 854.212
R204 VPB.n92 VPB.n91 854.212
R205 VPB.n96 VPB.n88 781.929
R206 VPB.n97 VPB.n96 781.929
R207 VPB.n81 VPB.n34 516.141
R208 VPB.n124 VPB.n123 516.141
R209 VPB.n70 VPB.n37 516.141
R210 VPB.n70 VPB.n69 516.141
R211 VPB.n143 VPB.n2 516.141
R212 VPB.n139 VPB.n2 516.141
R213 VPB.n60 VPB.n38 516.141
R214 VPB.t84 VPB.t23 475
R215 VPB.t54 VPB.t67 475
R216 VPB.t66 VPB.t8 475
R217 VPB.t28 VPB.t83 475
R218 VPB.t83 VPB.t24 475
R219 VPB.n100 VPB.n32 443.86
R220 VPB.n80 VPB.n79 443.86
R221 VPB.n79 VPB.n28 443.86
R222 VPB.n105 VPB.n104 443.86
R223 VPB.n104 VPB.n29 443.86
R224 VPB.n108 VPB.n107 443.86
R225 VPB.n19 VPB.n18 443.86
R226 VPB.n124 VPB.n122 443.86
R227 VPB.n69 VPB.n66 443.86
R228 VPB.n112 VPB.n23 443.86
R229 VPB.n113 VPB.n112 443.86
R230 VPB.n115 VPB.n114 443.86
R231 VPB.n114 VPB.n12 443.86
R232 VPB.n129 VPB.n128 443.86
R233 VPB.n128 VPB.n0 443.86
R234 VPB.n60 VPB.n59 443.86
R235 VPB.n58 VPB.n57 443.86
R236 VPB.n57 VPB.n46 443.86