* PEX produced on Tue Jun 17 16:16:41 WIB 2025 using ./iic-pex.sh with m=3 and s=1
* NGSPICE file created from top_buffer_opamp.ext - technology: sky130A

.subckt op_amp_posim P_IN[0] P_IN[1] P_IN[2] P_IN[3] P_IN[4] N_IN VOUT ROUT VDDA
+ GNDA
X0 VDDA.t252 opa_input_and_self_bias_0/opa_input_stage_0/cm_head_0/cm_pcell1_0.G1.t22 opa_input_and_self_bias_0/opa_input_stage_0/cm_head_0/cm_pcell1_0.ho3.t3 VDDA.t7 sky130_fd_pr__pfet_g5v0d10v5 ad=0.522 pd=4.18 as=0.522 ps=4.18 w=1.8 l=1
X1 opa_input_and_self_bias_0/opa_input_stage_0/cm_head_0/cm_pcell1_0.io1.t39 opa_input_and_self_bias_0/cm_pcell3_0.VB2.t4 opa_input_and_self_bias_0/cm_ncell3_0.DRAIN.t13 VDDA.t179 sky130_fd_pr__pfet_g5v0d10v5 ad=0.522 pd=4.18 as=0.522 ps=4.18 w=1.8 l=1
X2 opa_input_and_self_bias_0/opa_input_stage_0/opa_diffpairs_0/dp_pmos_top_0/dp_pmos_5.I_OPA.t28 VOUT.t40 sky130_fd_pr__cap_mim_m3_1 l=2 w=2
X3 opa_input_and_self_bias_0/opa_input_stage_0/cm_head_0/cm_pcell1_0.G1.t19 opa_input_and_self_bias_0/cm_pcell3_0.VB2.t5 opa_input_and_self_bias_0/opa_input_stage_0/cm_head_0/cm_pcell1_0.io0.t39 VDDA.t171 sky130_fd_pr__pfet_g5v0d10v5 ad=0.522 pd=4.18 as=0.522 ps=4.18 w=1.8 l=1
X4 opa_input_and_self_bias_0/opa_input_stage_0/cm_tail_0/cm_ncell1_0.io0.t19 opa_input_and_self_bias_0/cm_ncell3_0.VTAIL2.t4 opa_input_and_self_bias_0/opa_input_stage_0/cm_tail_0/cm_ncell1_0.G1.t9 GNDA.t17 sky130_fd_pr__nfet_g5v0d10v5 ad=0.174 pd=1.78 as=0.174 ps=1.78 w=0.6 l=1
X5 opa_input_and_self_bias_0/opa_input_stage_0/cm_head_0/cm_pcell1_0.ho4.t15 opa_input_and_self_bias_0/opa_input_stage_0/cm_head_0/cm_pcell1_0.G1.t23 VDDA.t251 VDDA.t8 sky130_fd_pr__pfet_g5v0d10v5 ad=0.522 pd=4.18 as=0.522 ps=4.18 w=1.8 l=1
X6 GNDA.t83 opa_folded_cascode_0.monticelli_top_0.B.t6 VOUT.t2 GNDA.t82 sky130_fd_pr__nfet_g5v0d10v5 ad=0.29 pd=2.58 as=0.145 ps=1.29 w=1 l=1
X7 opa_input_and_self_bias_0/opa_input_stage_0/cm_head_0/cm_pcell1_0.G1.t20 opa_input_and_self_bias_0/cm_pcell3_0.VB2.t6 opa_input_and_self_bias_0/opa_input_stage_0/cm_head_0/cm_pcell1_0.io0.t38 VDDA.t25 sky130_fd_pr__pfet_g5v0d10v5 ad=0.522 pd=4.18 as=0.522 ps=4.18 w=1.8 l=1
X8 GNDA.t77 opa_input_and_self_bias_0/opa_input_stage_0/cm_tail_0/cm_ncell1_0.G1.t22 opa_input_and_self_bias_0/opa_input_stage_0/cm_tail_0/cm_ncell1_0.to4.t31 GNDA.t8 sky130_fd_pr__nfet_g5v0d10v5 ad=0.174 pd=1.78 as=0.174 ps=1.78 w=0.6 l=1
X9 VDDA.t250 opa_input_and_self_bias_0/opa_input_stage_0/cm_head_0/cm_pcell1_0.G1.t24 opa_input_and_self_bias_0/opa_input_stage_0/cm_head_0/cm_pcell1_0.io1.t19 VDDA.t21 sky130_fd_pr__pfet_g5v0d10v5 ad=0.522 pd=4.18 as=0.522 ps=4.18 w=1.8 l=1
X10 opa_input_and_self_bias_0/opa_input_stage_0/cm_head_0/cm_pcell1_0.G1.t0 opa_input_and_self_bias_0/cm_pcell3_0.VB2.t7 opa_input_and_self_bias_0/opa_input_stage_0/cm_head_0/cm_pcell1_0.io0.t37 VDDA.t7 sky130_fd_pr__pfet_g5v0d10v5 ad=0.522 pd=4.18 as=0.522 ps=4.18 w=1.8 l=1
X11 opa_input_and_self_bias_0/opa_input_stage_0/opa_diffpairs_0/dp_nmos_top_0/dp_nmos_5.I_ONA.t24 VOUT.t1 sky130_fd_pr__cap_mim_m3_1 l=2 w=2
X12 GNDA.t296 GNDA.t294 GNDA.t295 GNDA.t155 sky130_fd_pr__nfet_g5v0d10v5 ad=0.174 pd=1.78 as=0 ps=0 w=0.6 l=1
X13 a_n9736_226.t8 N_IN.t0 opa_input_and_self_bias_0/opa_input_stage_0/opa_diffpairs_0/dp_nmos_top_0/dp_nmos_5.I_ONB.t15 GNDA.t91 sky130_fd_pr__nfet_g5v0d10v5 ad=0.145 pd=1.29 as=0.145 ps=1.29 w=1 l=1
X14 opa_input_and_self_bias_0/opa_input_stage_0/cm_head_0/cm_pcell1_0.io0.t36 opa_input_and_self_bias_0/cm_pcell3_0.VB2.t8 opa_input_and_self_bias_0/opa_input_stage_0/cm_head_0/cm_pcell1_0.G1.t1 VDDA.t8 sky130_fd_pr__pfet_g5v0d10v5 ad=0.522 pd=4.18 as=0.522 ps=4.18 w=1.8 l=1
X15 opa_folded_cascode_0.monticelli_top_0.A.t5 opa_folded_cascode_0.VB2.t12 opa_folded_cascode_0.monticelli_top_0.B.t5 GNDA.t16 sky130_fd_pr__nfet_g5v0d10v5 ad=0.464 pd=3.78 as=0.464 ps=3.78 w=1.6 l=1
X16 VDDA.t249 opa_input_and_self_bias_0/opa_input_stage_0/cm_head_0/cm_pcell1_0.G1.t25 opa_input_and_self_bias_0/opa_input_stage_0/cm_head_0/cm_pcell1_0.io1.t18 VDDA.t22 sky130_fd_pr__pfet_g5v0d10v5 ad=0.522 pd=4.18 as=0.522 ps=4.18 w=1.8 l=1
X17 opa_input_and_self_bias_0/opa_input_stage_0/opa_diffpairs_0/dp_nmos_top_0/dp_nmos_5.I_ONA.t25 VOUT.t5 sky130_fd_pr__cap_mim_m3_1 l=2 w=2
X18 GNDA.t76 opa_input_and_self_bias_0/opa_input_stage_0/cm_tail_0/cm_ncell1_0.G1.t23 opa_input_and_self_bias_0/opa_input_stage_0/cm_tail_0/cm_ncell1_0.io0.t37 GNDA.t8 sky130_fd_pr__nfet_g5v0d10v5 ad=0.174 pd=1.78 as=0.174 ps=1.78 w=0.6 l=1
X19 opa_input_and_self_bias_0/opa_input_stage_0/cm_tail_0/cm_ncell1_0.to4.t15 opa_input_and_self_bias_0/cm_ncell3_0.VTAIL2.t5 a_n11789_1598.t15 GNDA.t17 sky130_fd_pr__nfet_g5v0d10v5 ad=0.174 pd=1.78 as=0.174 ps=1.78 w=0.6 l=1
X20 a_n9736_226.t4 P_IN[2].t0 opa_input_and_self_bias_0/opa_input_stage_0/opa_diffpairs_0/dp_nmos_top_0/dp_nmos_5.I_ONA.t5 GNDA.t91 sky130_fd_pr__nfet_g5v0d10v5 ad=0.145 pd=1.29 as=0.145 ps=1.29 w=1 l=1
X21 opa_input_and_self_bias_0/opa_input_stage_0/opa_diffpairs_0/dp_pmos_top_0/dp_pmos_5.I_OPB.t12 N_IN.t1 opa_input_and_self_bias_0/opa_input_stage_0/opa_diffpairs_0/dp_pmos_top_0/dp_pmos_5.I_HEAD.t3 VDDA.t261 sky130_fd_pr__pfet_g5v0d10v5 ad=0.435 pd=3.29 as=0.435 ps=3.29 w=3 l=1
X22 GNDA.t292 GNDA.t293 sky130_fd_pr__cap_mim_m3_1 l=2 w=2
X23 opa_input_and_self_bias_0/opa_input_stage_0/opa_diffpairs_0/dp_pmos_top_0/dp_pmos_0.I_HEAD.t3 P_IN[4].t0 opa_input_and_self_bias_0/opa_input_stage_0/opa_diffpairs_0/dp_pmos_top_0/dp_pmos_5.I_OPA.t5 VDDA.t10 sky130_fd_pr__pfet_g5v0d10v5 ad=0.435 pd=3.29 as=0.87 ps=6.58 w=3 l=1
X24 VDDA.t248 opa_input_and_self_bias_0/opa_input_stage_0/cm_head_0/cm_pcell1_0.G1.t26 opa_input_and_self_bias_0/opa_input_stage_0/cm_head_0/cm_pcell1_0.ho4.t14 VDDA.t9 sky130_fd_pr__pfet_g5v0d10v5 ad=0.522 pd=4.18 as=0.522 ps=4.18 w=1.8 l=1
X25 opa_input_and_self_bias_0/opa_input_stage_0/cm_tail_0/cm_ncell1_0.G1.t8 opa_input_and_self_bias_0/cm_ncell3_0.VTAIL2.t6 opa_input_and_self_bias_0/opa_input_stage_0/cm_tail_0/cm_ncell1_0.io0.t18 GNDA.t11 sky130_fd_pr__nfet_g5v0d10v5 ad=0.174 pd=1.78 as=0.174 ps=1.78 w=0.6 l=1
X26 VDDA.t247 opa_input_and_self_bias_0/opa_input_stage_0/cm_head_0/cm_pcell1_0.G1.t27 opa_input_and_self_bias_0/opa_input_stage_0/cm_head_0/cm_pcell1_0.ho4.t13 VDDA.t42 sky130_fd_pr__pfet_g5v0d10v5 ad=0.522 pd=4.18 as=0.522 ps=4.18 w=1.8 l=1
X27 VDDA.t246 opa_input_and_self_bias_0/opa_input_stage_0/cm_head_0/cm_pcell1_0.G1.t28 opa_input_and_self_bias_0/opa_input_stage_0/cm_head_0/cm_pcell1_0.ho4.t12 VDDA.t32 sky130_fd_pr__pfet_g5v0d10v5 ad=0.522 pd=4.18 as=0.522 ps=4.18 w=1.8 l=1
X28 VDDA.t262 a_n4822_n1462.t2 a_n4822_n1462.t3 VDDA.t258 sky130_fd_pr__pfet_g5v0d10v5 ad=1.392 pd=10.18 as=0.696 ps=5.09 w=4.8 l=1
X29 GNDA.t75 opa_input_and_self_bias_0/opa_input_stage_0/cm_tail_0/cm_ncell1_0.G1.t24 opa_input_and_self_bias_0/opa_input_stage_0/cm_tail_0/cm_ncell1_0.to3.t15 GNDA.t13 sky130_fd_pr__nfet_g5v0d10v5 ad=0.174 pd=1.78 as=0.174 ps=1.78 w=0.6 l=1
X30 opa_input_and_self_bias_0/cm_ncell3_0.DRAIN.t9 opa_input_and_self_bias_0/cm_pcell3_0.VB2.t9 opa_input_and_self_bias_0/opa_input_stage_0/cm_head_0/cm_pcell1_0.io1.t38 VDDA.t9 sky130_fd_pr__pfet_g5v0d10v5 ad=0.522 pd=4.18 as=0.522 ps=4.18 w=1.8 l=1
X31 GNDA.t291 GNDA.t289 GNDA.t290 GNDA.t145 sky130_fd_pr__nfet_g5v0d10v5 ad=0.174 pd=1.78 as=0 ps=0 w=0.6 l=1
X32 opa_input_and_self_bias_0/opa_input_stage_0/cm_tail_0/cm_ncell1_0.to4.t14 opa_input_and_self_bias_0/cm_ncell3_0.VTAIL2.t7 a_n11789_1598.t14 GNDA.t5 sky130_fd_pr__nfet_g5v0d10v5 ad=0.174 pd=1.78 as=0.174 ps=1.78 w=0.6 l=1
X33 GNDA.t103 opa_folded_cascode_0.monticelli_top_0.Bx.t6 opa_input_and_self_bias_0/opa_input_stage_0/opa_diffpairs_0/dp_pmos_top_0/dp_pmos_5.I_OPB.t23 GNDA.t102 sky130_fd_pr__nfet_g5v0d10v5 ad=0.232 pd=1.89 as=0.232 ps=1.89 w=1.6 l=1
X34 VDDA.t245 opa_input_and_self_bias_0/opa_input_stage_0/cm_head_0/cm_pcell1_0.G1.t29 opa_input_and_self_bias_0/opa_input_stage_0/cm_head_0/cm_pcell1_0.ho4.t11 VDDA.t33 sky130_fd_pr__pfet_g5v0d10v5 ad=0.522 pd=4.18 as=0.522 ps=4.18 w=1.8 l=1
X35 GNDA.t272 GNDA.t273 sky130_fd_pr__cap_mim_m3_1 l=2 w=2
X36 opa_input_and_self_bias_0/opa_input_stage_0/cm_tail_0/cm_ncell1_0.io1.t15 opa_input_and_self_bias_0/opa_input_stage_0/cm_tail_0/cm_ncell1_0.G1.t25 GNDA.t70 GNDA.t6 sky130_fd_pr__nfet_g5v0d10v5 ad=0.174 pd=1.78 as=0.174 ps=1.78 w=0.6 l=1
X37 opa_input_and_self_bias_0/opa_input_stage_0/opa_diffpairs_0/dp_pmos_top_0/dp_pmos_5.I_OPB.t21 N_IN.t2 opa_input_and_self_bias_0/opa_input_stage_0/opa_diffpairs_0/dp_pmos_top_0/dp_pmos_0.I_HEAD.t7 VDDA.t17 sky130_fd_pr__pfet_g5v0d10v5 ad=0.435 pd=3.29 as=0.435 ps=3.29 w=3 l=1
X38 VDDA.t244 opa_input_and_self_bias_0/opa_input_stage_0/cm_head_0/cm_pcell1_0.G1.t30 opa_input_and_self_bias_0/opa_input_stage_0/cm_head_0/cm_pcell1_0.io0.t19 VDDA.t22 sky130_fd_pr__pfet_g5v0d10v5 ad=0.522 pd=4.18 as=0.522 ps=4.18 w=1.8 l=1
X39 VDDA.t239 opa_input_and_self_bias_0/opa_input_stage_0/cm_head_0/cm_pcell1_0.G1.t31 opa_input_and_self_bias_0/opa_input_stage_0/cm_head_0/cm_pcell1_0.io0.t18 VDDA.t39 sky130_fd_pr__pfet_g5v0d10v5 ad=0.522 pd=4.18 as=0.522 ps=4.18 w=1.8 l=1
X40 opa_input_and_self_bias_0/opa_input_stage_0/cm_head_0/cm_pcell1_0.io1.t37 opa_input_and_self_bias_0/cm_pcell3_0.VB2.t10 opa_input_and_self_bias_0/cm_ncell3_0.DRAIN.t8 VDDA.t23 sky130_fd_pr__pfet_g5v0d10v5 ad=0.522 pd=4.18 as=0.522 ps=4.18 w=1.8 l=1
X41 VDDA.t170 VDDA.t168 VDDA.t169 VDDA.t122 sky130_fd_pr__pfet_g5v0d10v5 ad=0.522 pd=4.18 as=0 ps=0 w=1.8 l=1
X42 GNDA.t288 GNDA.t287 GNDA.t288 GNDA.t285 sky130_fd_pr__nfet_g5v0d10v5 ad=0.232 pd=1.89 as=0 ps=0 w=1.6 l=1
X43 opa_input_and_self_bias_0/opa_input_stage_0/cm_head_0/cm_pcell1_0.G1.t12 opa_input_and_self_bias_0/cm_pcell3_0.VB2.t11 opa_input_and_self_bias_0/opa_input_stage_0/cm_head_0/cm_pcell1_0.io0.t35 VDDA.t32 sky130_fd_pr__pfet_g5v0d10v5 ad=0.522 pd=4.18 as=0.522 ps=4.18 w=1.8 l=1
X44 opa_input_and_self_bias_0/opa_input_stage_0/opa_diffpairs_0/dp_pmos_top_0/dp_pmos_5.I_OPB.t1 opa_input_and_self_bias_0/cm_ncell3_0.VTAIL2.t8 opa_folded_cascode_0.monticelli_top_0.Bx.t1 GNDA.t14 sky130_fd_pr__nfet_g5v0d10v5 ad=0.464 pd=3.78 as=0.464 ps=3.78 w=1.6 l=1
X45 opa_input_and_self_bias_0/opa_input_stage_0/cm_tail_0/cm_ncell1_0.io0.t35 opa_input_and_self_bias_0/opa_input_stage_0/cm_tail_0/cm_ncell1_0.G1.t26 GNDA.t74 GNDA.t11 sky130_fd_pr__nfet_g5v0d10v5 ad=0.174 pd=1.78 as=0.174 ps=1.78 w=0.6 l=1
X46 a_n9242_n890.t5 P_IN[1].t0 opa_input_and_self_bias_0/opa_input_stage_0/opa_diffpairs_0/dp_nmos_top_0/dp_nmos_5.I_ONA.t10 GNDA.t101 sky130_fd_pr__nfet_g5v0d10v5 ad=0.145 pd=1.29 as=0.29 ps=2.58 w=1 l=1
X47 VDDA.t167 VDDA.t165 VDDA.t166 VDDA.t52 sky130_fd_pr__pfet_g5v0d10v5 ad=0.522 pd=4.18 as=0 ps=0 w=1.8 l=1
X48 opa_input_and_self_bias_0/opa_input_stage_0/cm_head_0/cm_pcell1_0.G1.t13 opa_input_and_self_bias_0/cm_pcell3_0.VB2.t12 opa_input_and_self_bias_0/opa_input_stage_0/cm_head_0/cm_pcell1_0.io0.t34 VDDA.t33 sky130_fd_pr__pfet_g5v0d10v5 ad=0.522 pd=4.18 as=0.522 ps=4.18 w=1.8 l=1
X49 opa_input_and_self_bias_0/opa_input_stage_0/cm_head_0/cm_pcell1_0.io0.t17 opa_input_and_self_bias_0/opa_input_stage_0/cm_head_0/cm_pcell1_0.G1.t32 VDDA.t243 VDDA.t42 sky130_fd_pr__pfet_g5v0d10v5 ad=0.522 pd=4.18 as=0.522 ps=4.18 w=1.8 l=1
X50 a_n9242_n890.t9 N_IN.t3 opa_input_and_self_bias_0/opa_input_stage_0/opa_diffpairs_0/dp_nmos_top_0/dp_nmos_5.I_ONB.t4 GNDA.t101 sky130_fd_pr__nfet_g5v0d10v5 ad=0.145 pd=1.29 as=0.29 ps=2.58 w=1 l=1
X51 opa_input_and_self_bias_0/opa_input_stage_0/opa_diffpairs_0/dp_pmos_top_0/dp_pmos_5.I_OPA.t18 P_IN[0].t0 opa_input_and_self_bias_0/opa_input_stage_0/opa_diffpairs_0/dp_pmos_top_0/dp_pmos_5.I_HEAD.t5 VDDA.t260 sky130_fd_pr__pfet_g5v0d10v5 ad=0.87 pd=6.58 as=0.435 ps=3.29 w=3 l=1
X52 opa_input_and_self_bias_0/opa_input_stage_0/cm_head_0/cm_pcell1_0.io2.t7 opa_input_and_self_bias_0/opa_input_stage_0/cm_head_0/cm_pcell1_0.G1.t33 VDDA.t242 VDDA.t38 sky130_fd_pr__pfet_g5v0d10v5 ad=0.522 pd=4.18 as=0.522 ps=4.18 w=1.8 l=1
X53 opa_input_and_self_bias_0/opa_input_stage_0/cm_tail_0/cm_ncell1_0.to4.t30 opa_input_and_self_bias_0/opa_input_stage_0/cm_tail_0/cm_ncell1_0.G1.t27 GNDA.t73 GNDA.t11 sky130_fd_pr__nfet_g5v0d10v5 ad=0.174 pd=1.78 as=0.174 ps=1.78 w=0.6 l=1
X54 opa_input_and_self_bias_0/opa_input_stage_0/opa_diffpairs_0/dp_pmos_top_0/dp_pmos_0.I_HEAD.t6 N_IN.t4 opa_input_and_self_bias_0/opa_input_stage_0/opa_diffpairs_0/dp_pmos_top_0/dp_pmos_5.I_OPB.t20 VDDA.t11 sky130_fd_pr__pfet_g5v0d10v5 ad=0.435 pd=3.29 as=0.435 ps=3.29 w=3 l=1
X55 VDDA.t164 VDDA.t162 VDDA.t163 VDDA.t153 sky130_fd_pr__pfet_g5v0d10v5 ad=0.522 pd=4.18 as=0 ps=0 w=1.8 l=1
X56 VDDA.t241 opa_input_and_self_bias_0/opa_input_stage_0/cm_head_0/cm_pcell1_0.G1.t34 opa_input_and_self_bias_0/opa_input_stage_0/cm_head_0/cm_pcell1_0.io1.t17 VDDA.t19 sky130_fd_pr__pfet_g5v0d10v5 ad=0.522 pd=4.18 as=0.522 ps=4.18 w=1.8 l=1
X57 opa_input_and_self_bias_0/opa_input_stage_0/opa_diffpairs_0/dp_nmos_top_0/dp_nmos_5.I_ONB.t7 N_IN.t5 a_n9242_n890.t8 GNDA.t84 sky130_fd_pr__nfet_g5v0d10v5 ad=0.145 pd=1.29 as=0.145 ps=1.29 w=1 l=1
X58 opa_input_and_self_bias_0/opa_input_stage_0/cm_head_0/cm_pcell1_0.ho3.t1 opa_input_and_self_bias_0/opa_input_stage_0/cm_head_0/cm_pcell1_0.G1.t35 VDDA.t240 VDDA.t179 sky130_fd_pr__pfet_g5v0d10v5 ad=0.522 pd=4.18 as=0.522 ps=4.18 w=1.8 l=1
X59 opa_input_and_self_bias_0/opa_input_stage_0/cm_head_0/cm_pcell1_0.io0.t16 opa_input_and_self_bias_0/opa_input_stage_0/cm_head_0/cm_pcell1_0.G1.t36 VDDA.t238 VDDA.t24 sky130_fd_pr__pfet_g5v0d10v5 ad=0.522 pd=4.18 as=0.522 ps=4.18 w=1.8 l=1
X60 opa_input_and_self_bias_0/opa_input_stage_0/cm_head_0/cm_pcell1_0.io0.t33 opa_input_and_self_bias_0/cm_pcell3_0.VB2.t13 opa_input_and_self_bias_0/opa_input_stage_0/cm_head_0/cm_pcell1_0.G1.t16 VDDA.t38 sky130_fd_pr__pfet_g5v0d10v5 ad=0.522 pd=4.18 as=0.522 ps=4.18 w=1.8 l=1
X61 opa_input_and_self_bias_0/opa_input_stage_0/opa_diffpairs_0/dp_pmos_top_0/dp_pmos_5.I_OPA.t29 VOUT.t39 sky130_fd_pr__cap_mim_m3_1 l=2 w=2
X62 GNDA.t270 GNDA.t271 sky130_fd_pr__cap_mim_m3_1 l=2 w=2
X63 opa_input_and_self_bias_0/opa_input_stage_0/opa_diffpairs_0/dp_nmos_top_0/dp_nmos_5.I_ONA.t26 VOUT.t47 sky130_fd_pr__cap_mim_m3_1 l=2 w=2
X64 opa_folded_cascode_0.monticelli_top_0.B.t1 opa_input_and_self_bias_0/cm_ncell3_0.VTAIL2.t9 opa_input_and_self_bias_0/opa_input_stage_0/opa_diffpairs_0/dp_pmos_top_0/dp_pmos_5.I_OPA.t16 GNDA.t16 sky130_fd_pr__nfet_g5v0d10v5 ad=0.464 pd=3.78 as=0.464 ps=3.78 w=1.6 l=1
X65 opa_input_and_self_bias_0/opa_input_stage_0/opa_diffpairs_0/dp_nmos_top_0/dp_nmos_5.I_ONA.t12 P_IN[1].t1 a_n9242_n890.t4 GNDA.t84 sky130_fd_pr__nfet_g5v0d10v5 ad=0.145 pd=1.29 as=0.145 ps=1.29 w=1 l=1
X66 opa_input_and_self_bias_0/opa_input_stage_0/opa_diffpairs_0/dp_nmos_top_0/dp_nmos_5.I_ONA.t20 opa_folded_cascode_0.monticelli_top_0.Ax.t6 VDDA.t266 VDDA.t12 sky130_fd_pr__pfet_g5v0d10v5 ad=1.392 pd=10.18 as=1.392 ps=10.18 w=4.8 l=1
X67 VDDA.t237 opa_input_and_self_bias_0/opa_input_stage_0/cm_head_0/cm_pcell1_0.G1.t37 opa_input_and_self_bias_0/opa_input_stage_0/cm_head_0/cm_pcell1_0.ho3.t6 VDDA.t25 sky130_fd_pr__pfet_g5v0d10v5 ad=0.522 pd=4.18 as=0.522 ps=4.18 w=1.8 l=1
X68 opa_input_and_self_bias_0/opa_input_stage_0/cm_head_0/cm_pcell1_0.io0.t32 opa_input_and_self_bias_0/cm_pcell3_0.VB2.t14 opa_input_and_self_bias_0/opa_input_stage_0/cm_head_0/cm_pcell1_0.G1.t17 VDDA.t179 sky130_fd_pr__pfet_g5v0d10v5 ad=0.522 pd=4.18 as=0.522 ps=4.18 w=1.8 l=1
X69 opa_input_and_self_bias_0/opa_input_stage_0/opa_diffpairs_0/dp_pmos_top_0/dp_pmos_5.I_OPB.t13 N_IN.t6 opa_input_and_self_bias_0/opa_input_stage_0/opa_diffpairs_0/dp_pmos_top_0/dp_pmos_3.I_HEAD.t3 VDDA.t13 sky130_fd_pr__pfet_g5v0d10v5 ad=0.87 pd=6.58 as=0.435 ps=3.29 w=3 l=1
X70 opa_input_and_self_bias_0/opa_input_stage_0/opa_diffpairs_0/dp_nmos_top_0/dp_nmos_5.I_ONA.t27 VOUT.t8 sky130_fd_pr__cap_mim_m3_1 l=2 w=2
X71 a_n9242_n890.t7 N_IN.t7 opa_input_and_self_bias_0/opa_input_stage_0/opa_diffpairs_0/dp_nmos_top_0/dp_nmos_5.I_ONB.t10 GNDA.t85 sky130_fd_pr__nfet_g5v0d10v5 ad=0.145 pd=1.29 as=0.145 ps=1.29 w=1 l=1
X72 opa_input_and_self_bias_0/opa_input_stage_0/cm_head_0/cm_pcell1_0.ho4.t26 opa_input_and_self_bias_0/cm_pcell3_0.VB2.t15 opa_input_and_self_bias_0/opa_input_stage_0/opa_diffpairs_0/dp_pmos_top_0/dp_pmos_0.I_HEAD.t23 VDDA.t42 sky130_fd_pr__pfet_g5v0d10v5 ad=0.522 pd=4.18 as=0.522 ps=4.18 w=1.8 l=1
X73 opa_input_and_self_bias_0/opa_input_stage_0/cm_tail_0/cm_ncell1_0.to3.t14 opa_input_and_self_bias_0/opa_input_stage_0/cm_tail_0/cm_ncell1_0.G1.t28 GNDA.t72 GNDA.t4 sky130_fd_pr__nfet_g5v0d10v5 ad=0.174 pd=1.78 as=0.174 ps=1.78 w=0.6 l=1
X74 opa_folded_cascode_0.monticelli_top_0.A.t2 opa_input_and_self_bias_0/cm_pcell3_0.VB2.t16 opa_input_and_self_bias_0/opa_input_stage_0/opa_diffpairs_0/dp_nmos_top_0/dp_nmos_5.I_ONA.t14 VDDA.t12 sky130_fd_pr__pfet_g5v0d10v5 ad=1.392 pd=10.18 as=1.392 ps=10.18 w=4.8 l=1
X75 opa_input_and_self_bias_0/cm_ncell3_0.DRAIN.t5 opa_input_and_self_bias_0/cm_pcell3_0.VB2.t17 opa_input_and_self_bias_0/opa_input_stage_0/cm_head_0/cm_pcell1_0.io1.t36 VDDA.t25 sky130_fd_pr__pfet_g5v0d10v5 ad=0.522 pd=4.18 as=0.522 ps=4.18 w=1.8 l=1
X76 GNDA.t71 opa_input_and_self_bias_0/opa_input_stage_0/cm_tail_0/cm_ncell1_0.G1.t29 opa_input_and_self_bias_0/opa_input_stage_0/cm_tail_0/cm_ncell1_0.to2.t7 GNDA.t10 sky130_fd_pr__nfet_g5v0d10v5 ad=0.174 pd=1.78 as=0.174 ps=1.78 w=0.6 l=1
X77 a_n9242_n890.t3 P_IN[1].t2 opa_input_and_self_bias_0/opa_input_stage_0/opa_diffpairs_0/dp_nmos_top_0/dp_nmos_5.I_ONA.t18 GNDA.t85 sky130_fd_pr__nfet_g5v0d10v5 ad=0.145 pd=1.29 as=0.145 ps=1.29 w=1 l=1
X78 opa_input_and_self_bias_0/opa_input_stage_0/opa_diffpairs_0/dp_pmos_top_0/dp_pmos_3.I_HEAD.t2 N_IN.t8 opa_input_and_self_bias_0/opa_input_stage_0/opa_diffpairs_0/dp_pmos_top_0/dp_pmos_5.I_OPB.t16 VDDA.t265 sky130_fd_pr__pfet_g5v0d10v5 ad=0.435 pd=3.29 as=0.435 ps=3.29 w=3 l=1
X79 GNDA.t69 opa_input_and_self_bias_0/opa_input_stage_0/cm_tail_0/cm_ncell1_0.G1.t30 opa_input_and_self_bias_0/opa_input_stage_0/cm_tail_0/cm_ncell1_0.io0.t30 GNDA.t9 sky130_fd_pr__nfet_g5v0d10v5 ad=0.174 pd=1.78 as=0.174 ps=1.78 w=0.6 l=1
X80 opa_input_and_self_bias_0/opa_input_stage_0/cm_tail_0/cm_ncell1_0.G1.t7 opa_input_and_self_bias_0/cm_ncell3_0.VTAIL2.t10 opa_input_and_self_bias_0/opa_input_stage_0/cm_tail_0/cm_ncell1_0.io0.t17 GNDA.t12 sky130_fd_pr__nfet_g5v0d10v5 ad=0.174 pd=1.78 as=0.174 ps=1.78 w=0.6 l=1
X81 GNDA.t268 GNDA.t269 sky130_fd_pr__cap_mim_m3_1 l=2 w=2
X82 VDDA.t236 opa_input_and_self_bias_0/opa_input_stage_0/cm_head_0/cm_pcell1_0.G1.t38 opa_input_and_self_bias_0/opa_input_stage_0/cm_head_0/cm_pcell1_0.ho3.t5 VDDA.t34 sky130_fd_pr__pfet_g5v0d10v5 ad=0.522 pd=4.18 as=0.522 ps=4.18 w=1.8 l=1
X83 GNDA.t286 GNDA.t284 GNDA.t286 GNDA.t285 sky130_fd_pr__nfet_g5v0d10v5 ad=0.232 pd=1.89 as=0 ps=0 w=1.6 l=1
X84 VDDA.t235 opa_input_and_self_bias_0/opa_input_stage_0/cm_head_0/cm_pcell1_0.G1.t39 opa_input_and_self_bias_0/opa_input_stage_0/cm_head_0/cm_pcell1_0.io0.t15 VDDA.t41 sky130_fd_pr__pfet_g5v0d10v5 ad=0.522 pd=4.18 as=0.522 ps=4.18 w=1.8 l=1
X85 opa_input_and_self_bias_0/opa_input_stage_0/opa_diffpairs_0/dp_pmos_top_0/dp_pmos_5.I_OPA.t30 VOUT.t38 sky130_fd_pr__cap_mim_m3_1 l=2 w=2
X86 opa_input_and_self_bias_0/opa_input_stage_0/opa_diffpairs_0/dp_nmos_top_0/dp_nmos_5.I_ONA.t11 P_IN[1].t3 a_n9242_n890.t2 GNDA.t114 sky130_fd_pr__nfet_g5v0d10v5 ad=0.29 pd=2.58 as=0.145 ps=1.29 w=1 l=1
X87 opa_input_and_self_bias_0/opa_input_stage_0/opa_diffpairs_0/dp_nmos_top_0/dp_nmos_5.I_ONB.t3 N_IN.t9 a_n10488_226.t14 GNDA.t113 sky130_fd_pr__nfet_g5v0d10v5 ad=0.145 pd=1.29 as=0.145 ps=1.29 w=1 l=1
X88 opa_folded_cascode_0.VB1.t11 opa_folded_cascode_0.VB1.t10 a_n4822_n1462.t4 VDDA.t258 sky130_fd_pr__pfet_g5v0d10v5 ad=1.392 pd=10.18 as=0.696 ps=5.09 w=4.8 l=1
X89 opa_input_and_self_bias_0/opa_input_stage_0/cm_head_0/cm_pcell1_0.ho1.t3 opa_input_and_self_bias_0/cm_pcell3_0.VB2.t18 opa_input_and_self_bias_0/opa_input_stage_0/opa_diffpairs_0/dp_pmos_top_0/dp_pmos_2.I_HEAD.t9 VDDA.t171 sky130_fd_pr__pfet_g5v0d10v5 ad=0.522 pd=4.18 as=0.522 ps=4.18 w=1.8 l=1
X90 GNDA.t68 opa_input_and_self_bias_0/opa_input_stage_0/cm_tail_0/cm_ncell1_0.G1.t31 opa_input_and_self_bias_0/opa_input_stage_0/cm_tail_0/cm_ncell1_0.to4.t29 GNDA.t9 sky130_fd_pr__nfet_g5v0d10v5 ad=0.174 pd=1.78 as=0.174 ps=1.78 w=0.6 l=1
X91 a_n9736_226.t1 opa_input_and_self_bias_0/cm_ncell3_0.VTAIL2.t11 opa_input_and_self_bias_0/opa_input_stage_0/cm_tail_0/cm_ncell1_0.to2.t3 GNDA.t8 sky130_fd_pr__nfet_g5v0d10v5 ad=0.174 pd=1.78 as=0.174 ps=1.78 w=0.6 l=1
X92 opa_input_and_self_bias_0/opa_input_stage_0/opa_diffpairs_0/dp_nmos_top_0/dp_nmos_5.I_ONA.t9 P_IN[3].t0 a_n10488_226.t15 GNDA.t113 sky130_fd_pr__nfet_g5v0d10v5 ad=0.145 pd=1.29 as=0.145 ps=1.29 w=1 l=1
X93 opa_input_and_self_bias_0/opa_input_stage_0/opa_diffpairs_0/dp_nmos_top_0/dp_nmos_5.I_ONA.t28 VOUT.t14 sky130_fd_pr__cap_mim_m3_1 l=2 w=2
X94 opa_input_and_self_bias_0/opa_input_stage_0/cm_tail_0/cm_ncell1_0.G1.t6 opa_input_and_self_bias_0/cm_ncell3_0.VTAIL2.t12 opa_input_and_self_bias_0/opa_input_stage_0/cm_tail_0/cm_ncell1_0.io0.t16 GNDA.t15 sky130_fd_pr__nfet_g5v0d10v5 ad=0.174 pd=1.78 as=0.174 ps=1.78 w=0.6 l=1
X95 GNDA.t283 GNDA.t281 GNDA.t282 GNDA.t155 sky130_fd_pr__nfet_g5v0d10v5 ad=0.174 pd=1.78 as=0 ps=0 w=0.6 l=1
X96 opa_input_and_self_bias_0/opa_input_stage_0/opa_diffpairs_0/dp_nmos_top_0/dp_nmos_5.I_ONB.t6 N_IN.t10 a_n9242_n890.t6 GNDA.t114 sky130_fd_pr__nfet_g5v0d10v5 ad=0.29 pd=2.58 as=0.145 ps=1.29 w=1 l=1
X97 opa_input_and_self_bias_0/opa_input_stage_0/cm_head_0/cm_pcell1_0.ho4.t10 opa_input_and_self_bias_0/opa_input_stage_0/cm_head_0/cm_pcell1_0.G1.t40 VDDA.t234 VDDA.t23 sky130_fd_pr__pfet_g5v0d10v5 ad=0.522 pd=4.18 as=0.522 ps=4.18 w=1.8 l=1
X98 opa_input_and_self_bias_0/opa_input_stage_0/cm_head_0/cm_pcell1_0.ho4.t22 opa_input_and_self_bias_0/cm_pcell3_0.VB2.t19 opa_input_and_self_bias_0/opa_input_stage_0/opa_diffpairs_0/dp_pmos_top_0/dp_pmos_0.I_HEAD.t22 VDDA.t7 sky130_fd_pr__pfet_g5v0d10v5 ad=0.522 pd=4.18 as=0.522 ps=4.18 w=1.8 l=1
X99 GNDA.t279 GNDA.t280 sky130_fd_pr__cap_mim_m3_1 l=2 w=2
X100 opa_input_and_self_bias_0/opa_input_stage_0/cm_tail_0/cm_ncell1_0.io0.t28 opa_input_and_self_bias_0/opa_input_stage_0/cm_tail_0/cm_ncell1_0.G1.t32 GNDA.t67 GNDA.t7 sky130_fd_pr__nfet_g5v0d10v5 ad=0.174 pd=1.78 as=0.174 ps=1.78 w=0.6 l=1
X101 opa_input_and_self_bias_0/opa_input_stage_0/opa_diffpairs_0/dp_pmos_top_0/dp_pmos_5.I_OPB.t19 N_IN.t11 opa_input_and_self_bias_0/opa_input_stage_0/opa_diffpairs_0/dp_pmos_top_0/dp_pmos_0.I_HEAD.t5 VDDA.t5 sky130_fd_pr__pfet_g5v0d10v5 ad=0.87 pd=6.58 as=0.435 ps=3.29 w=3 l=1
X102 GNDA.t277 GNDA.t278 sky130_fd_pr__cap_mim_m3_1 l=2 w=2
X103 opa_input_and_self_bias_0/opa_input_stage_0/cm_tail_0/cm_ncell1_0.io0.t27 opa_input_and_self_bias_0/opa_input_stage_0/cm_tail_0/cm_ncell1_0.G1.t33 GNDA.t66 GNDA.t3 sky130_fd_pr__nfet_g5v0d10v5 ad=0.174 pd=1.78 as=0.174 ps=1.78 w=0.6 l=1
X104 opa_folded_cascode_0.VB2.t4 opa_input_and_self_bias_0/cm_pcell3_0.VB2.t20 opa_input_and_self_bias_0/opa_input_stage_0/cm_head_0/cm_pcell1_0.io2.t15 VDDA.t8 sky130_fd_pr__pfet_g5v0d10v5 ad=0.522 pd=4.18 as=0.522 ps=4.18 w=1.8 l=1
X105 a_n4822_464.t5 opa_folded_cascode_0.VB2.t8 opa_folded_cascode_0.VB2.t9 GNDA.t94 sky130_fd_pr__nfet_g5v0d10v5 ad=0.232 pd=1.89 as=0.464 ps=3.78 w=1.6 l=1
X106 GNDA.t276 GNDA.t274 GNDA.t275 GNDA.t198 sky130_fd_pr__nfet_g5v0d10v5 ad=0.174 pd=1.78 as=0 ps=0 w=0.6 l=1
X107 GNDA.t266 GNDA.t267 sky130_fd_pr__cap_mim_m3_1 l=2 w=2
X108 GNDA.t65 opa_input_and_self_bias_0/opa_input_stage_0/cm_tail_0/cm_ncell1_0.G1.t34 opa_input_and_self_bias_0/opa_input_stage_0/cm_tail_0/cm_ncell1_0.io0.t26 GNDA.t1 sky130_fd_pr__nfet_g5v0d10v5 ad=0.174 pd=1.78 as=0.174 ps=1.78 w=0.6 l=1
X109 opa_input_and_self_bias_0/opa_input_stage_0/cm_head_0/cm_pcell1_0.io0.t31 opa_input_and_self_bias_0/cm_pcell3_0.VB2.t21 opa_input_and_self_bias_0/opa_input_stage_0/cm_head_0/cm_pcell1_0.G1.t7 VDDA.t23 sky130_fd_pr__pfet_g5v0d10v5 ad=0.522 pd=4.18 as=0.522 ps=4.18 w=1.8 l=1
X110 a_n7784_12197.t3 ROUT.t2 ROUT.t3 VDDA.t35 sky130_fd_pr__pfet_g5v0d10v5 ad=0.261 pd=2.09 as=0.522 ps=4.18 w=1.8 l=20
X111 a_n10488_226.t7 opa_input_and_self_bias_0/cm_ncell3_0.VTAIL2.t13 opa_input_and_self_bias_0/opa_input_stage_0/cm_tail_0/cm_ncell1_0.to3.t2 GNDA.t4 sky130_fd_pr__nfet_g5v0d10v5 ad=0.174 pd=1.78 as=0.174 ps=1.78 w=0.6 l=1
X112 opa_input_and_self_bias_0/opa_input_stage_0/opa_diffpairs_0/dp_nmos_top_0/dp_nmos_5.I_ONB.t23 opa_folded_cascode_0.monticelli_top_0.Ax.t7 VDDA.t263 VDDA.t12 sky130_fd_pr__pfet_g5v0d10v5 ad=1.392 pd=10.18 as=1.392 ps=10.18 w=4.8 l=1
X113 opa_input_and_self_bias_0/opa_input_stage_0/opa_diffpairs_0/dp_pmos_top_0/dp_pmos_2.I_HEAD.t3 P_IN[1].t4 opa_input_and_self_bias_0/opa_input_stage_0/opa_diffpairs_0/dp_pmos_top_0/dp_pmos_5.I_OPA.t14 VDDA.t36 sky130_fd_pr__pfet_g5v0d10v5 ad=0.435 pd=3.29 as=0.87 ps=6.58 w=3 l=1
X114 opa_input_and_self_bias_0/opa_input_stage_0/cm_tail_0/cm_ncell1_0.to4.t28 opa_input_and_self_bias_0/opa_input_stage_0/cm_tail_0/cm_ncell1_0.G1.t35 GNDA.t64 GNDA.t3 sky130_fd_pr__nfet_g5v0d10v5 ad=0.174 pd=1.78 as=0.174 ps=1.78 w=0.6 l=1
X115 GNDA.t63 opa_input_and_self_bias_0/opa_input_stage_0/cm_tail_0/cm_ncell1_0.G1.t36 opa_input_and_self_bias_0/opa_input_stage_0/cm_tail_0/cm_ncell1_0.to4.t27 GNDA.t1 sky130_fd_pr__nfet_g5v0d10v5 ad=0.174 pd=1.78 as=0.174 ps=1.78 w=0.6 l=1
X116 VDDA.t161 VDDA.t159 VDDA.t160 VDDA.t56 sky130_fd_pr__pfet_g5v0d10v5 ad=0.522 pd=4.18 as=0 ps=0 w=1.8 l=1
X117 a_n11843_11539.t3 a_n11843_11539.t2 opa_input_and_self_bias_0/cm_pcell3_0.VB2.t0 VDDA.t253 sky130_fd_pr__pfet_g5v0d10v5 ad=0.522 pd=4.18 as=0.261 ps=2.09 w=1.8 l=20
X118 opa_input_and_self_bias_0/cm_pcell3_0.VB2.t2 a_n11843_11539.t0 a_n11843_11539.t1 VDDA.t257 sky130_fd_pr__pfet_g5v0d10v5 ad=0.261 pd=2.09 as=0.522 ps=4.18 w=1.8 l=20
X119 opa_input_and_self_bias_0/cm_ncell3_0.DRAIN.t3 opa_input_and_self_bias_0/cm_ncell3_0.DRAIN.t2 opa_input_and_self_bias_0/cm_ncell3_0.VTAIL2.t3 GNDA.t118 sky130_fd_pr__nfet_g5v0d10v5 ad=0.174 pd=1.78 as=0.087 ps=0.89 w=0.6 l=20
X120 opa_input_and_self_bias_0/opa_input_stage_0/opa_diffpairs_0/dp_pmos_top_0/dp_pmos_5.I_OPB.t5 N_IN.t12 opa_input_and_self_bias_0/opa_input_stage_0/opa_diffpairs_0/dp_pmos_top_0/dp_pmos_2.I_HEAD.t7 VDDA.t37 sky130_fd_pr__pfet_g5v0d10v5 ad=0.435 pd=3.29 as=0.435 ps=3.29 w=3 l=1
X121 VDDA.t233 opa_input_and_self_bias_0/opa_input_stage_0/cm_head_0/cm_pcell1_0.G1.t41 opa_input_and_self_bias_0/opa_input_stage_0/cm_head_0/cm_pcell1_0.ho4.t9 VDDA.t24 sky130_fd_pr__pfet_g5v0d10v5 ad=0.522 pd=4.18 as=0.522 ps=4.18 w=1.8 l=1
X122 opa_input_and_self_bias_0/opa_input_stage_0/cm_head_0/cm_pcell1_0.io2.t14 opa_input_and_self_bias_0/cm_pcell3_0.VB2.t22 opa_folded_cascode_0.VB2.t0 VDDA.t9 sky130_fd_pr__pfet_g5v0d10v5 ad=0.522 pd=4.18 as=0.522 ps=4.18 w=1.8 l=1
X123 opa_input_and_self_bias_0/opa_input_stage_0/cm_head_0/cm_pcell1_0.ho2.t7 opa_input_and_self_bias_0/cm_pcell3_0.VB2.t23 opa_input_and_self_bias_0/opa_input_stage_0/opa_diffpairs_0/dp_pmos_top_0/dp_pmos_3.I_HEAD.t4 VDDA.t34 sky130_fd_pr__pfet_g5v0d10v5 ad=0.522 pd=4.18 as=0.522 ps=4.18 w=1.8 l=1
X124 opa_input_and_self_bias_0/opa_input_stage_0/opa_diffpairs_0/dp_pmos_top_0/dp_pmos_5.I_OPA.t31 VOUT.t37 sky130_fd_pr__cap_mim_m3_1 l=2 w=2
X125 opa_input_and_self_bias_0/opa_input_stage_0/cm_head_0/cm_pcell1_0.G1.t18 opa_input_and_self_bias_0/cm_pcell3_0.VB2.t24 opa_input_and_self_bias_0/opa_input_stage_0/cm_head_0/cm_pcell1_0.io0.t30 VDDA.t42 sky130_fd_pr__pfet_g5v0d10v5 ad=0.522 pd=4.18 as=0.522 ps=4.18 w=1.8 l=1
X126 GNDA.t264 GNDA.t265 sky130_fd_pr__cap_mim_m3_1 l=2 w=2
X127 opa_input_and_self_bias_0/opa_input_stage_0/cm_head_0/cm_pcell1_0.io2.t13 opa_input_and_self_bias_0/cm_pcell3_0.VB2.t25 opa_folded_cascode_0.VB2.t5 VDDA.t32 sky130_fd_pr__pfet_g5v0d10v5 ad=0.522 pd=4.18 as=0.522 ps=4.18 w=1.8 l=1
X128 opa_input_and_self_bias_0/opa_input_stage_0/cm_tail_0/cm_ncell1_0.io0.t15 opa_input_and_self_bias_0/cm_ncell3_0.VTAIL2.t14 opa_input_and_self_bias_0/opa_input_stage_0/cm_tail_0/cm_ncell1_0.G1.t19 GNDA.t8 sky130_fd_pr__nfet_g5v0d10v5 ad=0.174 pd=1.78 as=0.174 ps=1.78 w=0.6 l=1
X129 a_n9242_226.t9 N_IN.t13 opa_input_and_self_bias_0/opa_input_stage_0/opa_diffpairs_0/dp_nmos_top_0/dp_nmos_5.I_ONB.t19 GNDA.t100 sky130_fd_pr__nfet_g5v0d10v5 ad=0.145 pd=1.29 as=0.145 ps=1.29 w=1 l=1
X130 opa_input_and_self_bias_0/opa_input_stage_0/cm_head_0/cm_pcell1_0.ho3.t11 opa_input_and_self_bias_0/cm_pcell3_0.VB2.t26 opa_input_and_self_bias_0/opa_input_stage_0/opa_diffpairs_0/dp_pmos_top_0/dp_pmos_1.I_HEAD.t15 VDDA.t33 sky130_fd_pr__pfet_g5v0d10v5 ad=0.522 pd=4.18 as=0.522 ps=4.18 w=1.8 l=1
X131 opa_folded_cascode_0.monticelli_top_0.Bx.t0 opa_input_and_self_bias_0/cm_ncell3_0.VTAIL2.t15 opa_input_and_self_bias_0/opa_input_stage_0/opa_diffpairs_0/dp_pmos_top_0/dp_pmos_5.I_OPB.t0 GNDA.t16 sky130_fd_pr__nfet_g5v0d10v5 ad=0.464 pd=3.78 as=0.464 ps=3.78 w=1.6 l=1
X132 opa_input_and_self_bias_0/opa_input_stage_0/opa_diffpairs_0/dp_pmos_top_0/dp_pmos_2.I_HEAD.t6 N_IN.t14 opa_input_and_self_bias_0/opa_input_stage_0/opa_diffpairs_0/dp_pmos_top_0/dp_pmos_5.I_OPB.t3 VDDA.t14 sky130_fd_pr__pfet_g5v0d10v5 ad=0.435 pd=3.29 as=0.435 ps=3.29 w=3 l=1
X133 GNDA.t262 GNDA.t263 sky130_fd_pr__cap_mim_m3_1 l=2 w=2
X134 opa_folded_cascode_0.VB1.t7 opa_input_and_self_bias_0/cm_ncell3_0.VTAIL2.t16 opa_input_and_self_bias_0/opa_input_stage_0/cm_tail_0/cm_ncell1_0.io1.t6 GNDA.t1 sky130_fd_pr__nfet_g5v0d10v5 ad=0.174 pd=1.78 as=0.174 ps=1.78 w=0.6 l=1
X135 a_n9242_226.t5 P_IN[0].t1 opa_input_and_self_bias_0/opa_input_stage_0/opa_diffpairs_0/dp_nmos_top_0/dp_nmos_5.I_ONA.t16 GNDA.t100 sky130_fd_pr__nfet_g5v0d10v5 ad=0.145 pd=1.29 as=0.145 ps=1.29 w=1 l=1
X136 opa_folded_cascode_0.monticelli_top_0.B.t2 opa_folded_cascode_0.VB1.t12 opa_folded_cascode_0.monticelli_top_0.A.t0 VDDA.t12 sky130_fd_pr__pfet_g5v0d10v5 ad=1.392 pd=10.18 as=1.392 ps=10.18 w=4.8 l=1
X137 GNDA.t261 GNDA.t259 GNDA.t260 GNDA.t145 sky130_fd_pr__nfet_g5v0d10v5 ad=0.174 pd=1.78 as=0 ps=0 w=0.6 l=1
X138 GNDA.t62 opa_input_and_self_bias_0/opa_input_stage_0/cm_tail_0/cm_ncell1_0.G1.t37 opa_input_and_self_bias_0/opa_input_stage_0/cm_tail_0/cm_ncell1_0.io1.t14 GNDA.t13 sky130_fd_pr__nfet_g5v0d10v5 ad=0.174 pd=1.78 as=0.174 ps=1.78 w=0.6 l=1