* PEX produced on Thu Jun 26 04:02:24 WIB 2025 using ./iic-pex.sh with m=3 and s=1
* NGSPICE file created from top_digital_cell.ext - technology: sky130A

.subckt top_digital_posim DIN0 DIN1 DIN2 DIN3 DIN4 DIN5 DIN6 DIN7 DIN8 DIN9 VBPLV VBNLV
+ VBPDEC VBNDEC b[0] b[1] b[2] b[3] b[4] b[5] b[6] bb[0] bb[1] bb[2] bb[3] bb[4] bb[5]
+ bb[6] dec0[0] dec0[1] dec0[2] dec0[3] dec1[0] dec1[1] dec1[2] dec1[3] dec2[0] dec2[1]
+ dec2[2] dec2[3] dec2b[0] dec2b[1] dec2b[2] dec2b[3] SH[1] SH[2] SH[3] SH[4] VDD
+ VDDH GND
X0 lvsf_7bit_0/lvsf_buff_5/lvsf_0.IN.t1 lvsf_7bit_0/lvsf_buff_5/lvsf_0.INB.t4 GND.t273 GND.t272 sky130_fd_pr__nfet_01v8 ad=0.08775 pd=0.92 as=0.169 ps=1.82 w=0.65 l=0.15
X1 a_24840_n1428.t1 decoder_3_0/decoder_2to4_2.bb[0].t2 GND.t36 GND.t35 sky130_fd_pr__nfet_01v8 ad=0.08775 pd=0.92 as=0.169 ps=1.82 w=0.65 l=0.15
X2 a_16484_n199.t1 VBPLV.t0 VDDH.t127 VDDH.t126 sky130_fd_pr__pfet_g5v0d10v5 ad=0.145 pd=1.29 as=0.145 ps=1.29 w=1 l=0.8
X3 lvsf_7bit_0/lvsf_buff_0/lvsf_0.IN.t1 lvsf_7bit_0/lvsf_buff_0/lvsf_0.INB.t4 GND.t110 GND.t109 sky130_fd_pr__nfet_01v8 ad=0.08775 pd=0.92 as=0.169 ps=1.82 w=0.65 l=0.15
X4 VDDH.t12 VBPDEC.t0 a_22706_943.t0 VDDH.t11 sky130_fd_pr__pfet_g5v0d10v5 ad=0.2436 pd=2.26 as=0.1218 ps=1.13 w=0.84 l=1
X5 a_13908_n296.t1 lvsf_7bit_0/lvsf_buff_0/lvsf_0.OUTP.t2 a_14504_n199.t0 VDDH.t49 sky130_fd_pr__pfet_g5v0d10v5 ad=0.29 pd=2.58 as=0.145 ps=1.29 w=1 l=0.8
X6 lvsf_7bit_0/lvsf_buff_5/lvsf_0.IN.t3 lvsf_7bit_0/lvsf_buff_5/lvsf_0.INB.t5 VDD.t161 VDD.t160 sky130_fd_pr__pfet_01v8_hvt ad=0.135 pd=1.27 as=0.26 ps=2.52 w=1 l=0.15
X7 lvsf_7bit_0/lvsf_buff_0/lvsf_0.IN.t3 lvsf_7bit_0/lvsf_buff_0/lvsf_0.INB.t5 VDD.t3 VDD.t2 sky130_fd_pr__pfet_01v8_hvt ad=0.135 pd=1.27 as=0.26 ps=2.52 w=1 l=0.15
X8 GND.t69 lvsf_7bit_0/lvsf_buff_7/lvsf_0.INB.t4 a_20048_n709.t0 GND.t68 sky130_fd_pr__nfet_01v8 ad=0.435 pd=3.29 as=0.87 ps=6.58 w=3 l=0.15
X9 a_17344_n1619.t0 lvsf_7bit_0/lvsf_buff_2/lvsf_0.IN.t4 GND.t94 GND.t93 sky130_fd_pr__nfet_01v8 ad=0.87 pd=6.58 as=0.435 ps=3.29 w=3 l=0.15
X10 dcell_lv_0.b[8].t3 dcell_lv_0.bb[8].t4 GND.t91 GND.t90 sky130_fd_pr__nfet_01v8 ad=0.08775 pd=0.92 as=0.169 ps=1.82 w=0.65 l=0.15
X11 VDD.t169 lvsf_7bit_0/lvsf_buff_5/lvsf_0.IN.t4 decoder_3_0/dec_2_0/decoder_2to4_0.dec_logic_0/sky130_fd_sc_hd__nand2_1_1.Y.t0 VDD.t168 sky130_fd_pr__pfet_01v8_hvt ad=0.26 pd=2.52 as=0.135 ps=1.27 w=1 l=0.15
X12 VDDH.t125 VBPLV.t1 a_17038_n199.t1 VDDH.t124 sky130_fd_pr__pfet_g5v0d10v5 ad=0.145 pd=1.29 as=0.145 ps=1.29 w=1 l=0.8
X13 dcell_lv_0.b[8].t1 dcell_lv_0.bb[8].t5 VDD.t47 VDD.t46 sky130_fd_pr__pfet_01v8_hvt ad=0.135 pd=1.27 as=0.26 ps=2.52 w=1 l=0.15
X14 decoder_3_0/dec_2_0/decoder_2to4_0.dec_logic_0/sky130_fd_sc_hd__nand2_1_3.Y.t0 lvsf_7bit_0/lvsf_buff_4/lvsf_0.IN.t4 VDD.t57 VDD.t56 sky130_fd_pr__pfet_01v8_hvt ad=0.135 pd=1.27 as=0.26 ps=2.52 w=1 l=0.15
X15 dcell_lv_0.seg_selector_logic_0.x3/x3.B.t3 decoder_3_0/decoder_2to4_1.bb[1].t4 a_7030_204.t1 GND.t18 sky130_fd_pr__nfet_01v8 ad=0.195 pd=1.9 as=0.10725 ps=0.98 w=0.65 l=0.15
X16 VDDH.t13 VBPDEC.t1 a_23732_943.t1 VDDH.t2 sky130_fd_pr__pfet_g5v0d10v5 ad=0.2436 pd=2.26 as=0.1218 ps=1.13 w=0.84 l=1
X17 GND.t338 lvsf_7bit_0/lvsf_buff_3/lvsf_0.INB.t4 a_16088_n709.t0 GND.t337 sky130_fd_pr__nfet_01v8 ad=0.435 pd=3.29 as=0.87 ps=6.58 w=3 l=0.15
X18 a_23732_943.t0 dec1[0].t2 a_23732_685.t0 VDDH.t2 sky130_fd_pr__pfet_g5v0d10v5 ad=0.1218 pd=1.13 as=0.1218 ps=1.13 w=0.84 l=1
X19 dcell_lv_0.logic_shift_seg2_0.x7.Y.t2 lvsf_7bit_0/lvsf_buff_7/lvsf_0.IN.t4 a_6682_n1748.t1 GND.t201 sky130_fd_pr__nfet_01v8 ad=0.169 pd=1.82 as=0.08775 ps=0.92 w=0.65 l=0.15
X20 a_18858_n296.t0 lvsf_7bit_0/lvsf_buff_4/lvsf_0.OUTP.t2 a_19454_n199.t0 VDDH.t62 sky130_fd_pr__pfet_g5v0d10v5 ad=0.29 pd=2.58 as=0.145 ps=1.29 w=1 l=0.8
X21 seg_selector_lvsf_0/lvsf_inv_1/lvsf_0.INB.t2 dcell_lv_0.seg_selector_logic_0.x2/x4.A.t3 a_7766_n660.t1 GND.t86 sky130_fd_pr__nfet_01v8 ad=0.195 pd=1.9 as=0.10725 ps=0.98 w=0.65 l=0.15
X22 a_16048_n199.t0 a_15888_n296.t2 lvsf_7bit_0/lvsf_buff_3/lvsf_0.OUTP.t0 VDDH.t70 sky130_fd_pr__pfet_g5v0d10v5 ad=0.145 pd=1.29 as=0.29 ps=2.58 w=1 l=0.8
X23 a_24472_685.t0 dec0[2].t2 a_24472_427.t1 VDDH.t39 sky130_fd_pr__pfet_g5v0d10v5 ad=0.1218 pd=1.13 as=0.1218 ps=1.13 w=0.84 l=1
X24 a_13118_n709.t1 VBNLV.t0 seg_selector_lvsf_0/lvsf_inv_3/sky130_fd_sc_hvl__inv_1_1.A.t1 GND.t160 sky130_fd_pr__nfet_g5v0d10v5 ad=0.29 pd=2.58 as=0.29 ps=2.58 w=1 l=1
X25 VDD.t119 dcell_lv_0.seg_selector_logic_0.x2/x4.A.t4 seg_selector_lvsf_0/lvsf_inv_1/lvsf_0.INB.t1 VDD.t118 sky130_fd_pr__pfet_01v8_hvt ad=0.3 pd=2.6 as=0.165 ps=1.33 w=1 l=0.15
X26 seg_selector_lvsf_0/lvsf_inv_0/lvsf_0.INB.t0 dcell_lv_0.seg_selector_logic_0.x1/x3.B.t3 GND.t169 GND.t168 sky130_fd_pr__nfet_01v8 ad=0.08775 pd=0.92 as=0.169 ps=1.82 w=0.65 l=0.15
X27 a_25156_427.t1 dec0[2].t3 dec0[3].t1 VDDH.t28 sky130_fd_pr__pfet_g5v0d10v5 ad=0.1218 pd=1.13 as=0.2436 ps=2.26 w=0.84 l=1
X28 decoder_3_0/dec_2_0/decoder_2to4_0.dec_logic_0/sky130_fd_sc_hd__nand2_1_1.Y.t2 lvsf_7bit_0/lvsf_buff_4/lvsf_0.INB.t4 VDD.t181 VDD.t180 sky130_fd_pr__pfet_01v8_hvt ad=0.135 pd=1.27 as=0.26 ps=2.52 w=1 l=0.15
X29 seg_selector_lvsf_0/lvsf_inv_2/lvsf_0.INB.t1 seg_selector_lvsf_0/lvsf_inv_2/lvsf_0.IN.t3 GND.t8 GND.t7 sky130_fd_pr__nfet_01v8 ad=0.169 pd=1.82 as=0.169 ps=1.82 w=0.65 l=0.15
X30 dcell_lv_0.seg_selector_logic_0.x1/x3.A.t2 decoder_3_0/decoder_2to4_1.bb[1].t5 a_7510_428.t1 GND.t19 sky130_fd_pr__nfet_01v8 ad=0.169 pd=1.82 as=0.08775 ps=0.92 w=0.65 l=0.15
X31 b[2].t1 bb[2].t2 VDDH.t59 VDDH.t58 sky130_fd_pr__pfet_g5v0d10v5 ad=0.4275 pd=3.57 as=0.4275 ps=3.57 w=1.5 l=0.5
X32 a_13908_n296.t0 VBNLV.t1 a_14374_n1619.t0 GND.t161 sky130_fd_pr__nfet_g5v0d10v5 ad=0.29 pd=2.58 as=0.29 ps=2.58 w=1 l=1
X33 SH[1].t1 seg_selector_lvsf_0/lvsf_inv_0/sky130_fd_sc_hvl__inv_1_1.A.t2 VDDH.t80 VDDH.t79 sky130_fd_pr__pfet_g5v0d10v5 ad=0.4275 pd=3.57 as=0.4275 ps=3.57 w=1.5 l=0.5
X34 a_7786_428.t0 dcell_lv_0.bb[8].t6 GND.t154 GND.t153 sky130_fd_pr__nfet_01v8 ad=0.08775 pd=0.92 as=0.169 ps=1.82 w=0.65 l=0.15
X35 bb[3].t1 lvsf_7bit_0/lvsf_buff_2/lvsf_0.OUTP.t2 VDDH.t72 VDDH.t71 sky130_fd_pr__pfet_g5v0d10v5 ad=0.4275 pd=3.57 as=0.4275 ps=3.57 w=1.5 l=0.5
X36 decoder_3_0/decoder_2to4_2.bb[0].t1 decoder_3_0/decoder_2to4_2.b[0].t4 VDD.t199 VDD.t198 sky130_fd_pr__pfet_01v8_hvt ad=0.26 pd=2.52 as=0.26 ps=2.52 w=1 l=0.15
X37 b[3].t1 bb[3].t2 VDDH.t131 VDDH.t130 sky130_fd_pr__pfet_g5v0d10v5 ad=0.4275 pd=3.57 as=0.4275 ps=3.57 w=1.5 l=0.5
X38 seg_selector_lvsf_0/lvsf_inv_0/lvsf_0.IN.t1 seg_selector_lvsf_0/lvsf_inv_0/lvsf_0.INB.t3 GND.t1 GND.t0 sky130_fd_pr__nfet_01v8 ad=0.169 pd=1.82 as=0.169 ps=1.82 w=0.65 l=0.15
X39 a_7130_n1748.t0 dcell_lv_0.logic_shift_seg2_0.x6.Y.t3 a_7046_n1748.t1 GND.t333 sky130_fd_pr__nfet_01v8 ad=0.10725 pd=0.98 as=0.08775 ps=0.92 w=0.65 l=0.15
X40 GND.t320 DIN6.t0 lvsf_7bit_0/lvsf_buff_7/lvsf_0.INB.t2 GND.t319 sky130_fd_pr__nfet_01v8 ad=0.169 pd=1.82 as=0.08775 ps=0.92 w=0.65 l=0.15
X41 dcell_lv_0.logic_shift_seg2_0.x7.Y.t0 dcell_lv_0.b[8].t4 VDD.t120 VDD.t62 sky130_fd_pr__pfet_01v8_hvt ad=0.135 pd=1.27 as=0.26 ps=2.52 w=1 l=0.15
X42 bb[4].t1 lvsf_7bit_0/lvsf_buff_5/lvsf_0.OUTP.t2 VDDH.t42 VDDH.t41 sky130_fd_pr__pfet_g5v0d10v5 ad=0.4275 pd=3.57 as=0.4275 ps=3.57 w=1.5 l=0.5
X43 b[4].t1 bb[4].t2 VDDH.t16 VDDH.t15 sky130_fd_pr__pfet_g5v0d10v5 ad=0.4275 pd=3.57 as=0.4275 ps=3.57 w=1.5 l=0.5
X44 VDD.t201 decoder_3_0/decoder_2to4_2.b[0].t5 decoder_3_0/decoder_2to4_2.dec_logic_0/sky130_fd_sc_hd__nand2_1_1.Y.t0 VDD.t200 sky130_fd_pr__pfet_01v8_hvt ad=0.26 pd=2.52 as=0.135 ps=1.27 w=1 l=0.15
X45 VDD.t213 DIN6.t1 lvsf_7bit_0/lvsf_buff_7/lvsf_0.INB.t3 VDD.t212 sky130_fd_pr__pfet_01v8_hvt ad=0.26 pd=2.52 as=0.135 ps=1.27 w=1 l=0.15
X46 decoder_3_0/decoder_2to4_2.b[0].t1 dcell_lv_0.logic_shift_seg2_0.x8.Y.t4 a_7130_n1748.t1 GND.t218 sky130_fd_pr__nfet_01v8 ad=0.169 pd=1.82 as=0.10725 ps=0.98 w=0.65 l=0.15
X47 a_19324_n1619.t0 lvsf_7bit_0/lvsf_buff_4/lvsf_0.IN.t5 GND.t107 GND.t106 sky130_fd_pr__nfet_01v8 ad=0.87 pd=6.58 as=0.435 ps=3.29 w=3 l=0.15
X48 bb[5].t1 lvsf_7bit_0/lvsf_buff_4/lvsf_0.OUTP.t3 VDDH.t64 VDDH.t63 sky130_fd_pr__pfet_g5v0d10v5 ad=0.4275 pd=3.57 as=0.4275 ps=3.57 w=1.5 l=0.5
X49 b[5].t1 bb[5].t2 VDDH.t33 VDDH.t32 sky130_fd_pr__pfet_g5v0d10v5 ad=0.4275 pd=3.57 as=0.4275 ps=3.57 w=1.5 l=0.5
X50 a_6866_n660.t1 dcell_lv_0.bb[9].t4 GND.t17 GND.t16 sky130_fd_pr__nfet_01v8 ad=0.08775 pd=0.92 as=0.169 ps=1.82 w=0.65 l=0.15
X51 dcell_lv_0.logic_shift_seg2_0.x4.B.t2 dcell_lv_0.b[9].t4 VDD.t63 VDD.t62 sky130_fd_pr__pfet_01v8_hvt ad=0.135 pd=1.27 as=0.26 ps=2.52 w=1 l=0.15
X52 decoder_3_0/decoder_2to4_2.dec_logic_0/sky130_fd_sc_hd__nand2_1_0.Y.t0 decoder_3_0/decoder_2to4_2.bb[1].t2 a_24288_n1428.t0 GND.t221 sky130_fd_pr__nfet_01v8 ad=0.169 pd=1.82 as=0.08775 ps=0.92 w=0.65 l=0.15
X53 a_21282_685.t1 dec2[2].t2 a_21282_427.t0 VDDH.t22 sky130_fd_pr__pfet_g5v0d10v5 ad=0.1218 pd=1.13 as=0.1218 ps=1.13 w=0.84 l=1
X54 lvsf_7bit_0/lvsf_buff_3/lvsf_0.INB.t0 DIN2.t0 GND.t34 GND.t33 sky130_fd_pr__nfet_01v8 ad=0.08775 pd=0.92 as=0.169 ps=1.82 w=0.65 l=0.15
X55 a_13384_n1619.t1 seg_selector_lvsf_0/lvsf_inv_3/lvsf_0.IN.t3 GND.t172 GND.t171 sky130_fd_pr__nfet_01v8 ad=0.87 pd=6.58 as=0.435 ps=3.29 w=3 l=0.15
X56 GND.t313 decoder_3_0/decoder_2to4_1.dec_logic_0/sky130_fd_sc_hd__nand2_1_0.Y.t3 a_22669_n395.t1 GND.t312 sky130_fd_pr__nfet_01v8 ad=0.29 pd=2.29 as=0.58 ps=4.58 w=2 l=0.15
X57 dcell_lv_0.seg_selector_logic_0.x2/x4.C.t2 dcell_lv_0.bb[9].t5 VDD.t9 VDD.t8 sky130_fd_pr__pfet_01v8_hvt ad=0.135 pd=1.27 as=0.26 ps=2.52 w=1 l=0.15
X58 GND.t230 decoder_3_0/decoder_2to4_1.bb[1].t6 decoder_3_0/decoder_2to4_1.b[1].t3 GND.t229 sky130_fd_pr__nfet_01v8 ad=0.169 pd=1.82 as=0.08775 ps=0.92 w=0.65 l=0.15
X59 SH[1].t0 seg_selector_lvsf_0/lvsf_inv_0/sky130_fd_sc_hvl__inv_1_1.A.t3 GND.t25 GND.t24 sky130_fd_pr__nfet_g5v0d10v5 ad=0.21375 pd=2.07 as=0.21375 ps=2.07 w=0.75 l=0.5
X60 a_7322_n884.t1 dcell_lv_0.logic_shift_seg2_0.x4.C.t3 GND.t59 GND.t58 sky130_fd_pr__nfet_01v8 ad=0.08775 pd=0.92 as=0.169 ps=1.82 w=0.65 l=0.15
X61 a_17078_n709.t1 VBNLV.t2 lvsf_7bit_0/lvsf_buff_2/lvsf_0.OUTP.t1 GND.t162 sky130_fd_pr__nfet_g5v0d10v5 ad=0.29 pd=2.58 as=0.29 ps=2.58 w=1 l=1
X62 a_19848_n296.t0 lvsf_7bit_0/lvsf_buff_7/lvsf_0.OUTP.t2 a_20444_n199.t0 VDDH.t18 sky130_fd_pr__pfet_g5v0d10v5 ad=0.29 pd=2.58 as=0.145 ps=1.29 w=1 l=0.8
X63 lvsf_7bit_0/lvsf_buff_3/lvsf_0.INB.t1 DIN2.t1 VDD.t117 VDD.t116 sky130_fd_pr__pfet_01v8_hvt ad=0.135 pd=1.27 as=0.26 ps=2.52 w=1 l=0.15
X64 a_7046_n1748.t0 dcell_lv_0.logic_shift_seg2_0.x7.Y.t3 GND.t174 GND.t173 sky130_fd_pr__nfet_01v8 ad=0.08775 pd=0.92 as=0.169 ps=1.82 w=0.65 l=0.15
X65 a_22706_685.t0 dec1[2].t2 a_22706_427.t0 VDDH.t11 sky130_fd_pr__pfet_g5v0d10v5 ad=0.1218 pd=1.13 as=0.1218 ps=1.13 w=0.84 l=1
X66 VDD.t137 decoder_3_0/decoder_2to4_1.bb[1].t7 decoder_3_0/decoder_2to4_1.b[1].t1 VDD.t136 sky130_fd_pr__pfet_01v8_hvt ad=0.26 pd=2.52 as=0.135 ps=1.27 w=1 l=0.15
X67 a_7510_428.t0 lvsf_7bit_0/lvsf_buff_7/lvsf_0.INB.t5 GND.t71 GND.t70 sky130_fd_pr__nfet_01v8 ad=0.08775 pd=0.92 as=0.169 ps=1.82 w=0.65 l=0.15
X68 SH[2].t0 seg_selector_lvsf_0/lvsf_inv_1/sky130_fd_sc_hvl__inv_1_1.A.t2 GND.t21 GND.t20 sky130_fd_pr__nfet_g5v0d10v5 ad=0.21375 pd=2.07 as=0.21375 ps=2.07 w=0.75 l=0.5
X69 lvsf_7bit_0/lvsf_buff_7/lvsf_0.INB.t1 DIN6.t2 GND.t96 GND.t95 sky130_fd_pr__nfet_01v8 ad=0.08775 pd=0.92 as=0.169 ps=1.82 w=0.65 l=0.15
X70 decoder_3_0/decoder_2to4_2.dec_logic_0/sky130_fd_sc_hd__nand2_1_3.Y.t2 decoder_3_0/decoder_2to4_2.b[0].t6 a_25116_n1428.t1 GND.t297 sky130_fd_pr__nfet_01v8 ad=0.169 pd=1.82 as=0.08775 ps=0.92 w=0.65 l=0.15
X71 VDDH.t123 VBPLV.t2 a_14068_n199.t1 VDDH.t122 sky130_fd_pr__pfet_g5v0d10v5 ad=0.145 pd=1.29 as=0.145 ps=1.29 w=1 l=0.8
X72 dcell_lv_0.logic_shift_seg2_0.x4.A.t2 dcell_lv_0.b[9].t5 a_6406_n884.t1 GND.t108 sky130_fd_pr__nfet_01v8 ad=0.169 pd=1.82 as=0.08775 ps=0.92 w=0.65 l=0.15
X73 a_21992_n1428.t1 lvsf_7bit_0/lvsf_buff_5/lvsf_0.INB.t6 GND.t271 GND.t270 sky130_fd_pr__nfet_01v8 ad=0.08775 pd=0.92 as=0.169 ps=1.82 w=0.65 l=0.15
X74 GND.t234 seg_selector_lvsf_0/lvsf_inv_2/lvsf_0.INB.t2 a_12128_n709.t0 GND.t233 sky130_fd_pr__nfet_01v8 ad=0.435 pd=3.29 as=0.87 ps=6.58 w=3 l=0.15
X75 a_12524_n199.t1 VBPLV.t3 VDDH.t121 VDDH.t120 sky130_fd_pr__pfet_g5v0d10v5 ad=0.145 pd=1.29 as=0.145 ps=1.29 w=1 l=0.8
X76 lvsf_7bit_0/lvsf_buff_7/lvsf_0.INB.t0 DIN6.t3 VDD.t11 VDD.t10 sky130_fd_pr__pfet_01v8_hvt ad=0.135 pd=1.27 as=0.26 ps=2.52 w=1 l=0.15
X77 b[2].t0 bb[2].t3 GND.t181 GND.t180 sky130_fd_pr__nfet_g5v0d10v5 ad=0.21375 pd=2.07 as=0.21375 ps=2.07 w=0.75 l=0.5
X78 VDD.t43 decoder_3_0/decoder_2to4_1.b[1].t4 dcell_lv_0.logic_shift_seg2_0.x4.C.t0 VDD.t42 sky130_fd_pr__pfet_01v8_hvt ad=0.26 pd=2.52 as=0.135 ps=1.27 w=1 l=0.15
X79 a_17868_n296.t1 VBNLV.t3 a_18334_n1619.t0 GND.t99 sky130_fd_pr__nfet_g5v0d10v5 ad=0.29 pd=2.58 as=0.29 ps=2.58 w=1 l=1
X80 a_24288_n1428.t1 decoder_3_0/decoder_2to4_2.bb[0].t3 GND.t38 GND.t37 sky130_fd_pr__nfet_01v8 ad=0.08775 pd=0.92 as=0.169 ps=1.82 w=0.65 l=0.15
X81 VDD.t35 decoder_3_0/decoder_2to4_2.b[1].t4 decoder_3_0/decoder_2to4_2.dec_logic_0/sky130_fd_sc_hd__nand2_1_2.Y.t0 VDD.t34 sky130_fd_pr__pfet_01v8_hvt ad=0.26 pd=2.52 as=0.135 ps=1.27 w=1 l=0.15
X82 a_13078_n199.t0 a_12918_n296.t2 seg_selector_lvsf_0/lvsf_inv_3/sky130_fd_sc_hvl__inv_1_1.A.t0 VDDH.t34 sky130_fd_pr__pfet_g5v0d10v5 ad=0.145 pd=1.29 as=0.29 ps=2.58 w=1 l=0.8
X83 bb[3].t0 lvsf_7bit_0/lvsf_buff_2/lvsf_0.OUTP.t3 GND.t261 GND.t260 sky130_fd_pr__nfet_g5v0d10v5 ad=0.21375 pd=2.07 as=0.21375 ps=2.07 w=0.75 l=0.5
X84 a_7690_n1748.t0 dcell_lv_0.bb[8].t7 GND.t156 GND.t155 sky130_fd_pr__nfet_01v8 ad=0.08775 pd=0.92 as=0.169 ps=1.82 w=0.65 l=0.15
X85 b[3].t0 bb[3].t3 GND.t203 GND.t202 sky130_fd_pr__nfet_g5v0d10v5 ad=0.21375 pd=2.07 as=0.21375 ps=2.07 w=0.75 l=0.5
X86 decoder_3_0/decoder_2to4_1.b[1].t2 decoder_3_0/decoder_2to4_1.bb[1].t8 GND.t73 GND.t72 sky130_fd_pr__nfet_01v8 ad=0.08775 pd=0.92 as=0.169 ps=1.82 w=0.65 l=0.15
X87 a_25142_n983.t1 decoder_3_0/decoder_2to4_2.dec_logic_0/sky130_fd_sc_hd__nand2_1_3.Y.t3 GND.t263 GND.t262 sky130_fd_pr__nfet_01v8 ad=0.58 pd=4.58 as=0.29 ps=2.29 w=2 l=0.15
X88 a_24472_427.t0 dec0[3].t2 dec0[1].t1 VDDH.t39 sky130_fd_pr__pfet_g5v0d10v5 ad=0.1218 pd=1.13 as=0.2436 ps=2.26 w=0.84 l=1
X89 bb[4].t0 lvsf_7bit_0/lvsf_buff_5/lvsf_0.OUTP.t3 GND.t134 GND.t133 sky130_fd_pr__nfet_g5v0d10v5 ad=0.21375 pd=2.07 as=0.21375 ps=2.07 w=0.75 l=0.5
X90 GND.t269 lvsf_7bit_0/lvsf_buff_5/lvsf_0.INB.t7 lvsf_7bit_0/lvsf_buff_5/lvsf_0.IN.t0 GND.t268 sky130_fd_pr__nfet_01v8 ad=0.169 pd=1.82 as=0.08775 ps=0.92 w=0.65 l=0.15
X91 b[4].t0 bb[4].t3 GND.t12 GND.t11 sky130_fd_pr__nfet_g5v0d10v5 ad=0.21375 pd=2.07 as=0.21375 ps=2.07 w=0.75 l=0.5
X92 decoder_3_0/decoder_2to4_1.b[1].t0 decoder_3_0/decoder_2to4_1.bb[1].t9 VDD.t37 VDD.t36 sky130_fd_pr__pfet_01v8_hvt ad=0.135 pd=1.27 as=0.26 ps=2.52 w=1 l=0.15
X93 a_17474_n199.t1 VBPLV.t4 VDDH.t119 VDDH.t118 sky130_fd_pr__pfet_g5v0d10v5 ad=0.145 pd=1.29 as=0.145 ps=1.29 w=1 l=0.8
X94 a_25116_n1428.t0 decoder_3_0/decoder_2to4_2.b[1].t5 GND.t57 GND.t56 sky130_fd_pr__nfet_01v8 ad=0.08775 pd=0.92 as=0.169 ps=1.82 w=0.65 l=0.15
X95 bb[5].t0 lvsf_7bit_0/lvsf_buff_4/lvsf_0.OUTP.t4 GND.t239 GND.t238 sky130_fd_pr__nfet_g5v0d10v5 ad=0.21375 pd=2.07 as=0.21375 ps=2.07 w=0.75 l=0.5
X96 VDD.t159 lvsf_7bit_0/lvsf_buff_5/lvsf_0.INB.t8 lvsf_7bit_0/lvsf_buff_5/lvsf_0.IN.t2 VDD.t158 sky130_fd_pr__pfet_01v8_hvt ad=0.26 pd=2.52 as=0.135 ps=1.27 w=1 l=0.15
X97 b[5].t0 bb[5].t3 GND.t329 GND.t328 sky130_fd_pr__nfet_g5v0d10v5 ad=0.21375 pd=2.07 as=0.21375 ps=2.07 w=0.75 l=0.5
X98 VDDH.t7 dec2[0].t2 dec2b[0].t1 VDDH.t6 sky130_fd_pr__pfet_g5v0d10v5 ad=0.4275 pd=3.57 as=0.4275 ps=3.57 w=1.5 l=0.5
X99 a_22294_n983.t0 decoder_3_0/dec_2_0/decoder_2to4_0.dec_logic_0/sky130_fd_sc_hd__nand2_1_3.Y.t3 GND.t82 GND.t81 sky130_fd_pr__nfet_01v8 ad=0.58 pd=4.58 as=0.29 ps=2.29 w=2 l=0.15
X100 GND.t158 dcell_lv_0.bb[8].t8 dcell_lv_0.b[8].t2 GND.t157 sky130_fd_pr__nfet_01v8 ad=0.169 pd=1.82 as=0.08775 ps=0.92 w=0.65 l=0.15
X101 a_14898_n296.t1 lvsf_7bit_0/lvsf_buff_1/lvsf_0.OUTP.t2 a_15494_n199.t1 VDDH.t76 sky130_fd_pr__pfet_g5v0d10v5 ad=0.29 pd=2.58 as=0.145 ps=1.29 w=1 l=0.8
X102 seg_selector_lvsf_0/lvsf_inv_1/lvsf_0.IN.t1 seg_selector_lvsf_0/lvsf_inv_1/lvsf_0.INB.t5 GND.t125 GND.t124 sky130_fd_pr__nfet_01v8 ad=0.169 pd=1.82 as=0.169 ps=1.82 w=0.65 l=0.15
X103 VDD.t86 lvsf_7bit_0/lvsf_buff_7/lvsf_0.INB.t6 dcell_lv_0.seg_selector_logic_0.x3/x3.A.t1 VDD.t85 sky130_fd_pr__pfet_01v8_hvt ad=0.135 pd=1.27 as=0.135 ps=1.27 w=1 l=0.15
X104 VDD.t222 dcell_lv_0.bb[8].t9 dcell_lv_0.b[8].t0 VDD.t221 sky130_fd_pr__pfet_01v8_hvt ad=0.26 pd=2.52 as=0.135 ps=1.27 w=1 l=0.15
X105 seg_selector_lvsf_0/lvsf_inv_1/lvsf_0.IN.t0 seg_selector_lvsf_0/lvsf_inv_1/lvsf_0.INB.t6 VDD.t170 VDD.t134 sky130_fd_pr__pfet_01v8_hvt ad=0.26 pd=2.52 as=0.26 ps=2.52 w=1 l=0.15
X106 a_18334_n1619.t1 lvsf_7bit_0/lvsf_buff_5/lvsf_0.IN.t5 GND.t183 GND.t182 sky130_fd_pr__nfet_01v8 ad=0.87 pd=6.58 as=0.435 ps=3.29 w=3 l=0.15
X107 a_7050_n884.t1 dcell_lv_0.b[9].t6 GND.t243 GND.t242 sky130_fd_pr__nfet_01v8 ad=0.08775 pd=0.92 as=0.169 ps=1.82 w=0.65 l=0.15
X108 dec1[1].t0 VBNDEC.t0 a_23006_n983.t0 GND.t219 sky130_fd_pr__nfet_g5v0d10v5 ad=0.29 pd=2.58 as=0.29 ps=2.58 w=1 l=1
X109 VDDH.t117 VBPLV.t5 a_18028_n199.t1 VDDH.t116 sky130_fd_pr__pfet_g5v0d10v5 ad=0.145 pd=1.29 as=0.145 ps=1.29 w=1 l=0.8
X110 VDD.t103 lvsf_7bit_0/lvsf_buff_7/lvsf_0.IN.t5 dcell_lv_0.seg_selector_logic_0.x4/x3.B.t1 VDD.t102 sky130_fd_pr__pfet_01v8_hvt ad=0.26 pd=2.52 as=0.135 ps=1.27 w=1 l=0.15
X111 a_24130_943.t0 dec0[1].t2 a_24130_685.t0 VDDH.t3 sky130_fd_pr__pfet_g5v0d10v5 ad=0.1218 pd=1.13 as=0.1218 ps=1.13 w=0.84 l=1
X112 decoder_3_0/dec_2_0/decoder_2to4_0.dec_logic_0/sky130_fd_sc_hd__nand2_1_2.Y.t0 lvsf_7bit_0/lvsf_buff_4/lvsf_0.IN.t6 a_21992_n1428.t0 GND.t170 sky130_fd_pr__nfet_01v8 ad=0.169 pd=1.82 as=0.08775 ps=0.92 w=0.65 l=0.15
X113 VDD.t45 decoder_3_0/decoder_2to4_1.b[1].t5 decoder_3_0/decoder_2to4_1.dec_logic_0/sky130_fd_sc_hd__nand2_1_2.Y.t1 VDD.t44 sky130_fd_pr__pfet_01v8_hvt ad=0.26 pd=2.52 as=0.135 ps=1.27 w=1 l=0.15
X114 VDDH.t30 VBPDEC.t2 a_21624_943.t1 VDDH.t9 sky130_fd_pr__pfet_g5v0d10v5 ad=0.2436 pd=2.26 as=0.1218 ps=1.13 w=0.84 l=1
X115 decoder_3_0/decoder_2to4_2.b[1].t3 dcell_lv_0.logic_shift_seg2_0.x4.A.t3 a_7406_n884.t1 GND.t30 sky130_fd_pr__nfet_01v8 ad=0.169 pd=1.82 as=0.10725 ps=0.98 w=0.65 l=0.15
X116 a_9948_n296.t1 VBNLV.t4 a_10414_n1619.t1 GND.t100 sky130_fd_pr__nfet_g5v0d10v5 ad=0.29 pd=2.58 as=0.29 ps=2.58 w=1 l=1
X117 a_21966_685.t0 dec2[1].t2 a_21966_427.t1 VDDH.t17 sky130_fd_pr__pfet_g5v0d10v5 ad=0.1218 pd=1.13 as=0.1218 ps=1.13 w=0.84 l=1
X118 GND.t67 lvsf_7bit_0/lvsf_buff_2/lvsf_0.INB.t4 a_17078_n709.t0 GND.t66 sky130_fd_pr__nfet_01v8 ad=0.435 pd=3.29 as=0.87 ps=6.58 w=3 l=0.15
X119 a_17038_n199.t0 a_16878_n296.t2 lvsf_7bit_0/lvsf_buff_2/lvsf_0.OUTP.t0 VDDH.t10 sky130_fd_pr__pfet_g5v0d10v5 ad=0.145 pd=1.29 as=0.29 ps=2.58 w=1 l=0.8
X120 a_21282_427.t1 dec2[3].t2 dec2[0].t0 VDDH.t22 sky130_fd_pr__pfet_g5v0d10v5 ad=0.1218 pd=1.13 as=0.2436 ps=2.26 w=0.84 l=1
X121 a_7030_204.t0 lvsf_7bit_0/lvsf_buff_7/lvsf_0.IN.t6 a_6946_204.t1 GND.t195 sky130_fd_pr__nfet_01v8 ad=0.10725 pd=0.98 as=0.08775 ps=0.92 w=0.65 l=0.15
X122 a_14108_n709.t1 VBNLV.t5 lvsf_7bit_0/lvsf_buff_0/lvsf_0.OUTP.t1 GND.t101 sky130_fd_pr__nfet_g5v0d10v5 ad=0.29 pd=2.58 as=0.29 ps=2.58 w=1 l=1
X123 GND.t225 DIN5.t0 lvsf_7bit_0/lvsf_buff_4/lvsf_0.INB.t2 GND.t224 sky130_fd_pr__nfet_01v8 ad=0.169 pd=1.82 as=0.08775 ps=0.92 w=0.65 l=0.15
X124 a_7766_n660.t0 dcell_lv_0.seg_selector_logic_0.x2/x4.B.t3 a_7682_n660.t0 GND.t276 sky130_fd_pr__nfet_01v8 ad=0.10725 pd=0.98 as=0.08775 ps=0.92 w=0.65 l=0.15
X125 lvsf_7bit_0/lvsf_buff_2/lvsf_0.IN.t3 lvsf_7bit_0/lvsf_buff_2/lvsf_0.INB.t5 GND.t179 GND.t178 sky130_fd_pr__nfet_01v8 ad=0.08775 pd=0.92 as=0.169 ps=1.82 w=0.65 l=0.15
X126 dcell_lv_0.seg_selector_logic_0.x2/x5.Y.t1 lvsf_7bit_0/lvsf_buff_7/lvsf_0.INB.t7 a_7314_n660.t0 GND.t167 sky130_fd_pr__nfet_01v8 ad=0.169 pd=1.82 as=0.10725 ps=0.98 w=0.65 l=0.15
X127 VDD.t237 DIN5.t1 lvsf_7bit_0/lvsf_buff_4/lvsf_0.INB.t3 VDD.t236 sky130_fd_pr__pfet_01v8_hvt ad=0.26 pd=2.52 as=0.135 ps=1.27 w=1 l=0.15
X128 seg_selector_lvsf_0/lvsf_inv_1/lvsf_0.INB.t0 dcell_lv_0.seg_selector_logic_0.x2/x4.B.t4 VDD.t115 VDD.t114 sky130_fd_pr__pfet_01v8_hvt ad=0.165 pd=1.33 as=0.135 ps=1.27 w=1 l=0.15
X129 a_22706_427.t1 dec1[3].t2 dec1[0].t1 VDDH.t11 sky130_fd_pr__pfet_g5v0d10v5 ad=0.1218 pd=1.13 as=0.2436 ps=2.26 w=0.84 l=1
X130 decoder_3_0/dec_2_0/decoder_2to4_0.dec_logic_0/sky130_fd_sc_hd__nand2_1_0.Y.t0 lvsf_7bit_0/lvsf_buff_4/lvsf_0.INB.t5 a_21440_n1428.t0 GND.t296 sky130_fd_pr__nfet_01v8 ad=0.169 pd=1.82 as=0.08775 ps=0.92 w=0.65 l=0.15
X131 lvsf_7bit_0/lvsf_buff_2/lvsf_0.IN.t0 lvsf_7bit_0/lvsf_buff_2/lvsf_0.INB.t6 VDD.t25 VDD.t24 sky130_fd_pr__pfet_01v8_hvt ad=0.135 pd=1.27 as=0.26 ps=2.52 w=1 l=0.15
X132 a_14898_n296.t0 VBNLV.t6 a_15364_n1619.t0 GND.t148 sky130_fd_pr__nfet_g5v0d10v5 ad=0.29 pd=2.58 as=0.29 ps=2.58 w=1 l=1
X133 dcell_lv_0.seg_selector_logic_0.x2/x5.Y.t2 lvsf_7bit_0/lvsf_buff_7/lvsf_0.INB.t8 VDD.t163 VDD.t162 sky130_fd_pr__pfet_01v8_hvt ad=0.26 pd=2.52 as=0.165 ps=1.33 w=1 l=0.15
X134 decoder_3_0/decoder_2to4_1.dec_logic_0/sky130_fd_sc_hd__nand2_1_2.Y.t0 lvsf_7bit_0/lvsf_buff_7/lvsf_0.INB.t9 VDD.t165 VDD.t164 sky130_fd_pr__pfet_01v8_hvt ad=0.135 pd=1.27 as=0.26 ps=2.52 w=1 l=0.15
X135 VDD.t99 lvsf_7bit_0/lvsf_buff_7/lvsf_0.IN.t7 dcell_lv_0.logic_shift_seg2_0.x7.Y.t1 VDD.t40 sky130_fd_pr__pfet_01v8_hvt ad=0.26 pd=2.52 as=0.135 ps=1.27 w=1 l=0.15
X136 bb[0].t1 lvsf_7bit_0/lvsf_buff_0/lvsf_0.OUTP.t3 VDDH.t51 VDDH.t50 sky130_fd_pr__pfet_g5v0d10v5 ad=0.4275 pd=3.57 as=0.4275 ps=3.57 w=1.5 l=0.5
X137 b[0].t1 bb[0].t2 VDDH.t66 VDDH.t65 sky130_fd_pr__pfet_g5v0d10v5 ad=0.4275 pd=3.57 as=0.4275 ps=3.57 w=1.5 l=0.5
X138 dcell_lv_0.seg_selector_logic_0.x4/x3.B.t0 decoder_3_0/decoder_2to4_1.b[1].t6 VDD.t215 VDD.t214 sky130_fd_pr__pfet_01v8_hvt ad=0.135 pd=1.27 as=0.26 ps=2.52 w=1 l=0.15
X139 decoder_3_0/decoder_2to4_2.dec_logic_0/sky130_fd_sc_hd__nand2_1_2.Y.t2 decoder_3_0/decoder_2to4_2.bb[0].t4 VDD.t111 VDD.t110 sky130_fd_pr__pfet_01v8_hvt ad=0.135 pd=1.27 as=0.26 ps=2.52 w=1 l=0.15
X140 VDDH.t115 VBPLV.t6 a_10108_n199.t1 VDDH.t114 sky130_fd_pr__pfet_g5v0d10v5 ad=0.145 pd=1.29 as=0.145 ps=1.29 w=1 l=0.8
X141 VDD.t41 lvsf_7bit_0/lvsf_buff_7/lvsf_0.IN.t8 dcell_lv_0.logic_shift_seg2_0.x4.B.t1 VDD.t40 sky130_fd_pr__pfet_01v8_hvt ad=0.26 pd=2.52 as=0.135 ps=1.27 w=1 l=0.15
X142 seg_selector_lvsf_0/lvsf_inv_2/lvsf_0.IN.t1 dcell_lv_0.seg_selector_logic_0.x3/x3.A.t5 a_7326_204.t0 GND.t316 sky130_fd_pr__nfet_01v8 ad=0.169 pd=1.82 as=0.08775 ps=0.92 w=0.65 l=0.15
X143 a_22308_943.t0 dec2[0].t3 a_22308_685.t1 VDDH.t8 sky130_fd_pr__pfet_g5v0d10v5 ad=0.1218 pd=1.13 as=0.1218 ps=1.13 w=0.84 l=1
X144 bb[1].t1 lvsf_7bit_0/lvsf_buff_1/lvsf_0.OUTP.t3 VDDH.t78 VDDH.t77 sky130_fd_pr__pfet_g5v0d10v5 ad=0.4275 pd=3.57 as=0.4275 ps=3.57 w=1.5 l=0.5
X145 b[1].t1 bb[1].t2 VDDH.t56 VDDH.t55 sky130_fd_pr__pfet_g5v0d10v5 ad=0.4275 pd=3.57 as=0.4275 ps=3.57 w=1.5 l=0.5
X146 GND.t251 DIN2.t2 lvsf_7bit_0/lvsf_buff_3/lvsf_0.INB.t2 GND.t250 sky130_fd_pr__nfet_01v8 ad=0.169 pd=1.82 as=0.08775 ps=0.92 w=0.65 l=0.15
X147 a_23048_685.t1 dec1[2].t3 a_23048_427.t0 VDDH.t1 sky130_fd_pr__pfet_g5v0d10v5 ad=0.1218 pd=1.13 as=0.1218 ps=1.13 w=0.84 l=1
X148 dec2[0].t1 VBNDEC.t1 a_21245_n395.t1 GND.t258 sky130_fd_pr__nfet_g5v0d10v5 ad=0.29 pd=2.58 as=0.29 ps=2.58 w=1 l=1
X149 VDD.t141 dcell_lv_0.b[9].t7 dcell_lv_0.seg_selector_logic_0.x3/x3.A.t3 VDD.t140 sky130_fd_pr__pfet_01v8_hvt ad=0.3 pd=2.6 as=0.165 ps=1.33 w=1 l=0.15
X150 bb[2].t1 lvsf_7bit_0/lvsf_buff_3/lvsf_0.OUTP.t2 VDDH.t68 VDDH.t67 sky130_fd_pr__pfet_g5v0d10v5 ad=0.4275 pd=3.57 as=0.4275 ps=3.57 w=1.5 l=0.5
X151 VDD.t122 dcell_lv_0.b[8].t5 dcell_lv_0.seg_selector_logic_0.x4/x3.A.t1 VDD.t121 sky130_fd_pr__pfet_01v8_hvt ad=0.26 pd=2.52 as=0.135 ps=1.27 w=1 l=0.15
X152 VDD.t147 DIN2.t3 lvsf_7bit_0/lvsf_buff_3/lvsf_0.INB.t3 VDD.t146 sky130_fd_pr__pfet_01v8_hvt ad=0.26 pd=2.52 as=0.135 ps=1.27 w=1 l=0.15
X153 VDD.t228 dcell_lv_0.logic_shift_seg2_0.x6.Y.t4 decoder_3_0/decoder_2to4_2.b[0].t3 VDD.t227 sky130_fd_pr__pfet_01v8_hvt ad=0.165 pd=1.33 as=0.135 ps=1.27 w=1 l=0.15
X154 a_7598_n660.t0 dcell_lv_0.seg_selector_logic_0.x2/x5.Y.t4 GND.t209 GND.t208 sky130_fd_pr__nfet_01v8 ad=0.08775 pd=0.92 as=0.169 ps=1.82 w=0.65 l=0.15
X155 a_23390_943.t0 dec1[0].t3 a_23390_685.t0 VDDH.t35 sky130_fd_pr__pfet_g5v0d10v5 ad=0.1218 pd=1.13 as=0.1218 ps=1.13 w=0.84 l=1
X156 a_14374_n1619.t1 lvsf_7bit_0/lvsf_buff_0/lvsf_0.IN.t4 GND.t197 GND.t196 sky130_fd_pr__nfet_01v8 ad=0.87 pd=6.58 as=0.435 ps=3.29 w=3 l=0.15
X157 a_18068_n709.t0 VBNLV.t7 lvsf_7bit_0/lvsf_buff_5/lvsf_0.OUTP.t1 GND.t149 sky130_fd_pr__nfet_g5v0d10v5 ad=0.29 pd=2.58 as=0.29 ps=2.58 w=1 l=1
X158 a_22864_n1428.t0 lvsf_7bit_0/lvsf_buff_7/lvsf_0.INB.t10 GND.t5 GND.t4 sky130_fd_pr__nfet_01v8 ad=0.08775 pd=0.92 as=0.169 ps=1.82 w=0.65 l=0.15
X159 VDDH.t113 VBPLV.t7 a_15058_n199.t1 VDDH.t112 sky130_fd_pr__pfet_g5v0d10v5 ad=0.145 pd=1.29 as=0.145 ps=1.29 w=1 l=0.8
X160 seg_selector_lvsf_0/lvsf_inv_1/lvsf_0.INB.t4 dcell_lv_0.seg_selector_logic_0.x2/x5.Y.t5 VDD.t217 VDD.t216 sky130_fd_pr__pfet_01v8_hvt ad=0.135 pd=1.27 as=0.26 ps=2.52 w=1 l=0.15
X161 a_24430_n983.t0 decoder_3_0/decoder_2to4_2.dec_logic_0/sky130_fd_sc_hd__nand2_1_1.Y.t3 GND.t115 GND.t114 sky130_fd_pr__nfet_01v8 ad=0.58 pd=4.58 as=0.29 ps=2.29 w=2 l=0.15
X162 VDD.t5 dcell_lv_0.seg_selector_logic_0.x4/x3.A.t3 a_6862_678.t1 VDD.t4 sky130_fd_pr__pfet_01v8_hvt ad=0.26 pd=2.52 as=0.105 ps=1.21 w=1 l=0.15
X163 GND.t84 DIN1.t0 lvsf_7bit_0/lvsf_buff_1/lvsf_0.INB.t3 GND.t83 sky130_fd_pr__nfet_01v8 ad=0.169 pd=1.82 as=0.08775 ps=0.92 w=0.65 l=0.15
X164 decoder_3_0/decoder_2to4_2.b[0].t2 dcell_lv_0.logic_shift_seg2_0.x8.Y.t5 VDD.t124 VDD.t123 sky130_fd_pr__pfet_01v8_hvt ad=0.26 pd=2.52 as=0.165 ps=1.33 w=1 l=0.15
X165 a_24814_943.t1 dec0[0].t2 a_24814_685.t1 VDDH.t27 sky130_fd_pr__pfet_g5v0d10v5 ad=0.1218 pd=1.13 as=0.1218 ps=1.13 w=0.84 l=1
X166 a_13514_n199.t1 VBPLV.t8 VDDH.t111 VDDH.t110 sky130_fd_pr__pfet_g5v0d10v5 ad=0.145 pd=1.29 as=0.145 ps=1.29 w=1 l=0.8
X167 VDD.t139 DIN1.t1 lvsf_7bit_0/lvsf_buff_1/lvsf_0.INB.t1 VDD.t138 sky130_fd_pr__pfet_01v8_hvt ad=0.26 pd=2.52 as=0.135 ps=1.27 w=1 l=0.15
X168 a_18858_n296.t1 VBNLV.t8 a_19324_n1619.t1 GND.t150 sky130_fd_pr__nfet_g5v0d10v5 ad=0.29 pd=2.58 as=0.29 ps=2.58 w=1 l=1
X169 a_7774_n1748.t1 decoder_3_0/decoder_2to4_1.bb[1].t10 a_7690_n1748.t1 GND.t92 sky130_fd_pr__nfet_01v8 ad=0.10725 pd=0.98 as=0.08775 ps=0.92 w=0.65 l=0.15
X170 GND.t75 seg_selector_lvsf_0/lvsf_inv_3/lvsf_0.INB.t2 a_13118_n709.t0 GND.t74 sky130_fd_pr__nfet_01v8 ad=0.435 pd=3.29 as=0.87 ps=6.58 w=3 l=0.15
X171 a_10938_n296.t0 seg_selector_lvsf_0/lvsf_inv_1/sky130_fd_sc_hvl__inv_1_1.A.t3 a_11534_n199.t0 VDDH.t73 sky130_fd_pr__pfet_g5v0d10v5 ad=0.29 pd=2.58 as=0.145 ps=1.29 w=1 l=0.8
X172 seg_selector_lvsf_0/lvsf_inv_3/lvsf_0.INB.t0 seg_selector_lvsf_0/lvsf_inv_3/lvsf_0.IN.t4 VDD.t145 VDD.t144 sky130_fd_pr__pfet_01v8_hvt ad=0.26 pd=2.52 as=0.26 ps=2.52 w=1 l=0.15
X173 dcell_lv_0.logic_shift_seg2_0.x6.Y.t0 dcell_lv_0.b[8].t6 a_6406_n1748.t0 GND.t53 sky130_fd_pr__nfet_01v8 ad=0.169 pd=1.82 as=0.08775 ps=0.92 w=0.65 l=0.15
X174 a_21582_n983.t1 decoder_3_0/dec_2_0/decoder_2to4_0.dec_logic_0/sky130_fd_sc_hd__nand2_1_1.Y.t3 GND.t282 GND.t281 sky130_fd_pr__nfet_01v8 ad=0.58 pd=4.58 as=0.29 ps=2.29 w=2 l=0.15
X175 a_14068_n199.t0 a_13908_n296.t2 lvsf_7bit_0/lvsf_buff_0/lvsf_0.OUTP.t0 VDDH.t21 sky130_fd_pr__pfet_g5v0d10v5 ad=0.145 pd=1.29 as=0.29 ps=2.58 w=1 l=0.8
X176 a_23692_n1428.t0 decoder_3_0/decoder_2to4_1.b[1].t7 GND.t325 GND.t324 sky130_fd_pr__nfet_01v8 ad=0.08775 pd=0.92 as=0.169 ps=1.82 w=0.65 l=0.15
X177 a_21966_427.t0 dec2[3].t3 dec2[2].t1 VDDH.t17 sky130_fd_pr__pfet_g5v0d10v5 ad=0.1218 pd=1.13 as=0.2436 ps=2.26 w=0.84 l=1
X178 GND.t340 lvsf_7bit_0/lvsf_buff_3/lvsf_0.INB.t5 lvsf_7bit_0/lvsf_buff_3/lvsf_0.IN.t3 GND.t339 sky130_fd_pr__nfet_01v8 ad=0.169 pd=1.82 as=0.08775 ps=0.92 w=0.65 l=0.15
X179 decoder_3_0/decoder_2to4_2.b[0].t0 dcell_lv_0.logic_shift_seg2_0.x7.Y.t4 VDD.t126 VDD.t125 sky130_fd_pr__pfet_01v8_hvt ad=0.135 pd=1.27 as=0.26 ps=2.52 w=1 l=0.15
X180 bb[0].t0 lvsf_7bit_0/lvsf_buff_0/lvsf_0.OUTP.t4 GND.t247 GND.t246 sky130_fd_pr__nfet_g5v0d10v5 ad=0.21375 pd=2.07 as=0.21375 ps=2.07 w=0.75 l=0.5
X181 GND.t40 dec2[0].t4 dec2b[0].t0 GND.t39 sky130_fd_pr__nfet_g5v0d10v5 ad=0.21375 pd=2.07 as=0.21375 ps=2.07 w=0.75 l=0.5
X182 b[0].t0 bb[0].t3 GND.t241 GND.t240 sky130_fd_pr__nfet_g5v0d10v5 ad=0.21375 pd=2.07 as=0.21375 ps=2.07 w=0.75 l=0.5
X183 dec2[3].t1 VBNDEC.t2 a_22294_n983.t1 GND.t259 sky130_fd_pr__nfet_g5v0d10v5 ad=0.29 pd=2.58 as=0.29 ps=2.58 w=1 l=1
X184 dcell_lv_0.seg_selector_logic_0.x4/x3.A.t2 dcell_lv_0.b[9].t8 VDD.t143 VDD.t142 sky130_fd_pr__pfet_01v8_hvt ad=0.135 pd=1.27 as=0.26 ps=2.52 w=1 l=0.15
X185 lvsf_7bit_0/lvsf_buff_4/lvsf_0.INB.t0 DIN5.t2 GND.t52 GND.t51 sky130_fd_pr__nfet_01v8 ad=0.08775 pd=0.92 as=0.169 ps=1.82 w=0.65 l=0.15
X186 a_18464_n199.t1 VBPLV.t9 VDDH.t109 VDDH.t108 sky130_fd_pr__pfet_g5v0d10v5 ad=0.145 pd=1.29 as=0.145 ps=1.29 w=1 l=0.8
X187 bb[1].t0 lvsf_7bit_0/lvsf_buff_1/lvsf_0.OUTP.t4 GND.t142 GND.t141 sky130_fd_pr__nfet_g5v0d10v5 ad=0.21375 pd=2.07 as=0.21375 ps=2.07 w=0.75 l=0.5
X188 VDD.t130 lvsf_7bit_0/lvsf_buff_3/lvsf_0.INB.t6 lvsf_7bit_0/lvsf_buff_3/lvsf_0.IN.t1 VDD.t129 sky130_fd_pr__pfet_01v8_hvt ad=0.26 pd=2.52 as=0.135 ps=1.27 w=1 l=0.15
X189 b[1].t0 bb[1].t3 GND.t213 GND.t212 sky130_fd_pr__nfet_g5v0d10v5 ad=0.21375 pd=2.07 as=0.21375 ps=2.07 w=0.75 l=0.5
X190 dcell_lv_0.seg_selector_logic_0.x3/x3.B.t4 dcell_lv_0.b[9].t9 VDD.t185 VDD.t184 sky130_fd_pr__pfet_01v8_hvt ad=0.135 pd=1.27 as=0.26 ps=2.52 w=1 l=0.15
X191 lvsf_7bit_0/lvsf_buff_1/lvsf_0.INB.t2 DIN1.t2 GND.t50 GND.t49 sky130_fd_pr__nfet_01v8 ad=0.08775 pd=0.92 as=0.169 ps=1.82 w=0.65 l=0.15
X192 a_15888_n296.t1 lvsf_7bit_0/lvsf_buff_3/lvsf_0.OUTP.t3 a_16484_n199.t0 VDDH.t69 sky130_fd_pr__pfet_g5v0d10v5 ad=0.29 pd=2.58 as=0.145 ps=1.29 w=1 l=0.8