* PEX produced on Wed Jun 11 01:32:36 WIB 2025 using ./iic-pex.sh with m=3 and s=1
* NGSPICE file created from top_segment_2.ext - technology: sky130A

.subckt top_segment_2_posim V0 V48 DEC0[0] DEC0[1] DEC0[2] DEC1[0] DEC1[1] DEC1[2] DEC1[3]
+ DEC2[0] DEC2[1] DEC2[2] DEC2[3] VH VL GND
X0 rseg_2_v3_0.v47.t2 V48.t0 GND.t78 sky130_fd_pr__res_xhigh_po_1p41 l=6.35
X1 a_4370_4223.t1 DEC0[1].t0 rseg_2_v3_0.v31.t1 GND.t22 sky130_fd_pr__nfet_g5v0d10v5 ad=0.1218 pd=1.42 as=0.1218 ps=1.42 w=0.42 l=0.5
X2 a_6452_6264.t0 DEC1[3].t0 a_5474_4223.t0 GND.t105 sky130_fd_pr__nfet_g5v0d10v5 ad=0.1218 pd=1.42 as=0.1218 ps=1.42 w=0.42 l=0.5
X3 rseg_2_v3_0.v15.t0 rseg_2_v3_0.v14.t0 GND.t15 sky130_fd_pr__res_xhigh_po_1p41 l=5.32
X4 a_2438_4223.t1 DEC0[0].t0 rseg_2_v3_0.v2.t1 GND.t9 sky130_fd_pr__nfet_g5v0d10v5 ad=0.1218 pd=1.42 as=0.1218 ps=1.42 w=0.42 l=0.5
X5 GND.t72 GND.t73 GND.t15 sky130_fd_pr__res_xhigh_po_1p41 l=6.35
X6 a_3818_4223.t1 DEC0[2].t0 rseg_2_v3_0.v43.t0 GND.t40 sky130_fd_pr__nfet_g5v0d10v5 ad=0.1218 pd=1.42 as=0.1218 ps=1.42 w=0.42 l=0.5
X7 a_3266_4223.t3 DEC0[0].t1 rseg_2_v3_0.v8.t0 GND.t55 sky130_fd_pr__nfet_g5v0d10v5 ad=0.1218 pd=1.42 as=0.1218 ps=1.42 w=0.42 l=0.5
X8 a_4646_4223.t1 DEC0[2].t1 V48.t1 GND.t82 sky130_fd_pr__nfet_g5v0d10v5 ad=0.1218 pd=1.42 as=0.1218 ps=1.42 w=0.42 l=0.5
X9 a_6176_6264.t2 DEC1[3].t1 a_3542_4223.t0 GND.t17 sky130_fd_pr__nfet_g5v0d10v5 ad=0.1218 pd=1.42 as=0.1218 ps=1.42 w=0.42 l=0.5
X10 rseg_2_v3_0.v17.t0 rseg_2_v3_0.v18.t0 GND.t6 sky130_fd_pr__res_xhigh_po_1p41 l=5.06
X11 GND.t85 GND.t86 GND.t42 sky130_fd_pr__res_xhigh_po_1p41 l=5.22
X12 a_2990_4223.t1 DEC0[0].t2 rseg_2_v3_0.v6.t1 GND.t36 sky130_fd_pr__nfet_g5v0d10v5 ad=0.1218 pd=1.42 as=0.1218 ps=1.42 w=0.42 l=0.5
X13 GND.t43 GND.t44 GND.t6 sky130_fd_pr__res_xhigh_po_1p41 l=5.12
X14 rseg_2_v3_0.v45.t1 rseg_2_v3_0.v46.t2 GND.t45 sky130_fd_pr__res_xhigh_po_1p41 l=5.88
X15 a_6176_6264.t1 DEC1[0].t0 a_4094_4223.t0 GND.t38 sky130_fd_pr__nfet_g5v0d10v5 ad=0.1218 pd=1.42 as=0.1218 ps=1.42 w=0.42 l=0.5
X16 a_3266_4223.t4 DEC0[1].t1 rseg_2_v3_0.v24.t0 GND.t54 sky130_fd_pr__nfet_g5v0d10v5 ad=0.1218 pd=1.42 as=0.1218 ps=1.42 w=0.42 l=0.5
X17 rseg_2_v3_0.v33.t2 rseg_2_v3_0.v34.t2 GND.t4 sky130_fd_pr__res_xhigh_po_1p41 l=4.76
X18 a_2162_4223.t2 DEC0[1].t2 rseg_2_v3_0.v16.t2 GND.t11 sky130_fd_pr__nfet_g5v0d10v5 ad=0.1218 pd=1.42 as=0.1218 ps=1.42 w=0.42 l=0.5
X19 a_3542_4223.t1 DEC0[2].t2 rseg_2_v3_0.v41.t1 GND.t37 sky130_fd_pr__nfet_g5v0d10v5 ad=0.1218 pd=1.42 as=0.1218 ps=1.42 w=0.42 l=0.5
X20 a_2990_4223.t2 DEC0[1].t3 rseg_2_v3_0.v22.t1 GND.t80 sky130_fd_pr__nfet_g5v0d10v5 ad=0.1218 pd=1.42 as=0.1218 ps=1.42 w=0.42 l=0.5
X21 a_3818_4223.t3 DEC0[1].t4 rseg_2_v3_0.v27.t1 GND.t90 sky130_fd_pr__nfet_g5v0d10v5 ad=0.1218 pd=1.42 as=0.1218 ps=1.42 w=0.42 l=0.5
X22 a_1886_4223.t2 DEC0[0].t3 rseg_2_v3_0.v1.t1 GND.t56 sky130_fd_pr__nfet_g5v0d10v5 ad=0.1218 pd=1.42 as=0.1218 ps=1.42 w=0.42 l=0.5
X23 a_3266_4223.t2 DEC0[2].t3 rseg_2_v3_0.v40.t1 GND.t20 sky130_fd_pr__nfet_g5v0d10v5 ad=0.1218 pd=1.42 as=0.1218 ps=1.42 w=0.42 l=0.5
X24 a_7004_6264.t3 DEC1[1].t0 a_2714_4223.t0 GND.t11 sky130_fd_pr__nfet_g5v0d10v5 ad=0.1218 pd=1.42 as=0.1218 ps=1.42 w=0.42 l=0.5
X25 GND.t65 GND.t66 GND.t15 sky130_fd_pr__res_xhigh_po_1p41 l=5.17
X26 a_5900_6264.t1 DEC1[0].t1 a_5198_4223.t1 GND.t58 sky130_fd_pr__nfet_g5v0d10v5 ad=0.1218 pd=1.42 as=0.1218 ps=1.42 w=0.42 l=0.5
X27 rseg_2_v3_0.v43.t2 rseg_2_v3_0.v44.t2 GND.t45 sky130_fd_pr__res_xhigh_po_1p41 l=5.58
X28 rseg_2_v3_0.v17.t2 rseg_2_v3_0.v16.t3 GND.t6 sky130_fd_pr__res_xhigh_po_1p41 l=5.12
X29 rseg_2_v3_0.v13.t0 rseg_2_v3_0.v12.t0 GND.t15 sky130_fd_pr__res_xhigh_po_1p41 l=5.58
X30 a_1886_4223.t3 DEC0[1].t5 rseg_2_v3_0.v17.t1 GND.t12 sky130_fd_pr__nfet_g5v0d10v5 ad=0.1218 pd=1.42 as=0.1218 ps=1.42 w=0.42 l=0.5
X31 VH.t0 DEC2[3].t0 a_7004_6264.t4 GND.t95 sky130_fd_pr__nfet_g5v0d10v5 ad=0.1218 pd=1.42 as=0.1218 ps=1.42 w=0.42 l=0.5
X32 GND.t32 GND.t33 GND.t1 sky130_fd_pr__res_xhigh_po_1p41 l=11.57
X33 a_2714_4223.t3 DEC0[1].t6 rseg_2_v3_0.v20.t1 GND.t69 sky130_fd_pr__nfet_g5v0d10v5 ad=0.1218 pd=1.42 as=0.1218 ps=1.42 w=0.42 l=0.5
X34 a_1334_4223.t0 DEC0[2].t4 rseg_2_v3_0.v37.t1 GND.t57 sky130_fd_pr__nfet_g5v0d10v5 ad=0.1218 pd=1.42 as=0.1218 ps=1.42 w=0.42 l=0.5
X35 a_3542_4223.t3 DEC0[1].t7 rseg_2_v3_0.v25.t0 GND.t46 sky130_fd_pr__nfet_g5v0d10v5 ad=0.1218 pd=1.42 as=0.1218 ps=1.42 w=0.42 l=0.5
X36 rseg_2_v3_0.v25.t2 rseg_2_v3_0.v26.t2 GND.t5 sky130_fd_pr__res_xhigh_po_1p41 l=4.71
X37 a_2162_4223.t0 DEC0[2].t5 rseg_2_v3_0.v32.t2 GND.t24 sky130_fd_pr__nfet_g5v0d10v5 ad=0.1218 pd=1.42 as=0.1218 ps=1.42 w=0.42 l=0.5
X38 rseg_2_v3_0.v3.t0 rseg_2_v3_0.v2.t0 GND.t1 sky130_fd_pr__res_xhigh_po_1p41 l=9.22
X39 a_2990_4223.t0 DEC0[2].t6 rseg_2_v3_0.v38.t2 GND.t14 sky130_fd_pr__nfet_g5v0d10v5 ad=0.1218 pd=1.42 as=0.1218 ps=1.42 w=0.42 l=0.5
X40 a_6728_6264.t4 DEC1[1].t1 a_1610_4223.t0 GND.t12 sky130_fd_pr__nfet_g5v0d10v5 ad=0.1218 pd=1.42 as=0.1218 ps=1.42 w=0.42 l=0.5
X41 a_1610_4223.t2 DEC0[0].t4 rseg_2_v3_0.v3.t2 GND.t31 sky130_fd_pr__nfet_g5v0d10v5 ad=0.1218 pd=1.42 as=0.1218 ps=1.42 w=0.42 l=0.5
X42 rseg_2_v3_0.v39.t2 rseg_2_v3_0.v40.t2 GND.t4 sky130_fd_pr__res_xhigh_po_1p41 l=5.17
X43 rseg_2_v3_0.v15.t1 rseg_2_v3_0.v16.t0 GND.t15 sky130_fd_pr__res_xhigh_po_1p41 l=5.17
X44 rseg_2_v3_0.v9.t0 rseg_2_v3_0.v10.t0 GND.t15 sky130_fd_pr__res_xhigh_po_1p41 l=6.14
X45 rseg_2_v3_0.v7.t0 rseg_2_v3_0.v6.t0 GND.t1 sky130_fd_pr__res_xhigh_po_1p41 l=7.01
X46 VL.t0 DEC2[3].t1 a_6728_6264.t0 GND.t28 sky130_fd_pr__nfet_g5v0d10v5 ad=0.1218 pd=1.42 as=0.1218 ps=1.42 w=0.42 l=0.5
X47 rseg_2_v3_0.v1.t0 V0.t0 GND.t1 sky130_fd_pr__res_xhigh_po_1p41 l=11.57
X48 VH.t3 DEC2[1].t0 a_6452_6264.t3 GND.t79 sky130_fd_pr__nfet_g5v0d10v5 ad=0.1218 pd=1.42 as=0.1218 ps=1.42 w=0.42 l=0.5
X49 rseg_2_v3_0.v37.t0 rseg_2_v3_0.v38.t1 GND.t4 sky130_fd_pr__res_xhigh_po_1p41 l=5.01
X50 a_2714_4223.t1 DEC0[2].t7 rseg_2_v3_0.v36.t0 GND.t100 sky130_fd_pr__nfet_g5v0d10v5 ad=0.1218 pd=1.42 as=0.1218 ps=1.42 w=0.42 l=0.5
X51 a_1334_4223.t1 DEC0[0].t5 rseg_2_v3_0.v5.t1 GND.t23 sky130_fd_pr__nfet_g5v0d10v5 ad=0.1218 pd=1.42 as=0.1218 ps=1.42 w=0.42 l=0.5
X52 a_2162_4223.t1 DEC0[0].t6 V0.t1 GND.t99 sky130_fd_pr__nfet_g5v0d10v5 ad=0.1218 pd=1.42 as=0.1218 ps=1.42 w=0.42 l=0.5
X53 rseg_2_v3_0.v25.t1 rseg_2_v3_0.v24.t2 GND.t5 sky130_fd_pr__res_xhigh_po_1p41 l=4.71
X54 a_4922_4223.t2 DEC0[0].t7 rseg_2_v3_0.v14.t2 GND.t91 sky130_fd_pr__nfet_g5v0d10v5 ad=0.1218 pd=1.42 as=0.1218 ps=1.42 w=0.42 l=0.5
X55 a_5474_4223.t2 DEC0[1].t8 rseg_2_v3_0.v26.t0 GND.t50 sky130_fd_pr__nfet_g5v0d10v5 ad=0.1218 pd=1.42 as=0.1218 ps=1.42 w=0.42 l=0.5
X56 GND.t87 GND.t88 GND.t4 sky130_fd_pr__res_xhigh_po_1p41 l=5.17
X57 VL.t3 DEC2[1].t1 a_6176_6264.t4 GND.t74 sky130_fd_pr__nfet_g5v0d10v5 ad=0.1218 pd=1.42 as=0.1218 ps=1.42 w=0.42 l=0.5
X58 GND.t61 GND.t62 GND.t5 sky130_fd_pr__res_xhigh_po_1p41 l=4.71
X59 a_1058_4223.t3 DEC0[1].t9 rseg_2_v3_0.v23.t1 GND.t7 sky130_fd_pr__nfet_g5v0d10v5 ad=0.1218 pd=1.42 as=0.1218 ps=1.42 w=0.42 l=0.5
X60 a_2438_4223.t0 DEC0[2].t8 rseg_2_v3_0.v34.t1 GND.t19 sky130_fd_pr__nfet_g5v0d10v5 ad=0.1218 pd=1.42 as=0.1218 ps=1.42 w=0.42 l=0.5
X61 a_1058_4223.t2 DEC0[0].t8 rseg_2_v3_0.v7.t1 GND.t13 sky130_fd_pr__nfet_g5v0d10v5 ad=0.1218 pd=1.42 as=0.1218 ps=1.42 w=0.42 l=0.5
X62 rseg_2_v3_0.v13.t1 rseg_2_v3_0.v14.t1 GND.t15 sky130_fd_pr__res_xhigh_po_1p41 l=5.47
X63 a_5900_6264.t2 DEC1[1].t2 a_2162_4223.t3 GND.t7 sky130_fd_pr__nfet_g5v0d10v5 ad=0.1218 pd=1.42 as=0.1218 ps=1.42 w=0.42 l=0.5
X64 rseg_2_v3_0.v3.t1 rseg_2_v3_0.v4.t1 GND.t1 sky130_fd_pr__res_xhigh_po_1p41 l=8.5
X65 rseg_2_v3_0.v21.t1 rseg_2_v3_0.v22.t2 GND.t6 sky130_fd_pr__res_xhigh_po_1p41 l=4.81
X66 a_3818_4223.t2 DEC0[0].t9 rseg_2_v3_0.v11.t0 GND.t16 sky130_fd_pr__nfet_g5v0d10v5 ad=0.1218 pd=1.42 as=0.1218 ps=1.42 w=0.42 l=0.5
X67 a_4646_4223.t2 DEC0[0].t10 rseg_2_v3_0.v16.t1 GND.t98 sky130_fd_pr__nfet_g5v0d10v5 ad=0.1218 pd=1.42 as=0.1218 ps=1.42 w=0.42 l=0.5
X68 rseg_2_v3_0.v5.t2 rseg_2_v3_0.v6.t2 GND.t1 sky130_fd_pr__res_xhigh_po_1p41 l=7.42
X69 rseg_2_v3_0.v35.t0 rseg_2_v3_0.v34.t0 GND.t4 sky130_fd_pr__res_xhigh_po_1p41 l=4.81
X70 rseg_2_v3_0.v1.t2 rseg_2_v3_0.v2.t2 GND.t1 sky130_fd_pr__res_xhigh_po_1p41 l=10.24
X71 a_5474_4223.t1 DEC0[0].t11 rseg_2_v3_0.v10.t1 GND.t47 sky130_fd_pr__nfet_g5v0d10v5 ad=0.1218 pd=1.42 as=0.1218 ps=1.42 w=0.42 l=0.5
X72 a_1610_4223.t3 DEC0[1].t10 rseg_2_v3_0.v19.t1 GND.t0 sky130_fd_pr__nfet_g5v0d10v5 ad=0.1218 pd=1.42 as=0.1218 ps=1.42 w=0.42 l=0.5
X73 rseg_2_v3_0.v23.t0 rseg_2_v3_0.v22.t0 GND.t6 sky130_fd_pr__res_xhigh_po_1p41 l=4.76
X74 a_2438_4223.t2 DEC0[1].t11 rseg_2_v3_0.v18.t1 GND.t53 sky130_fd_pr__nfet_g5v0d10v5 ad=0.1218 pd=1.42 as=0.1218 ps=1.42 w=0.42 l=0.5
X75 rseg_2_v3_0.v31.t0 rseg_2_v3_0.v32.t1 GND.t5 sky130_fd_pr__res_xhigh_po_1p41 l=4.71
X76 a_1058_4223.t0 DEC0[2].t9 rseg_2_v3_0.v39.t1 GND.t96 sky130_fd_pr__nfet_g5v0d10v5 ad=0.1218 pd=1.42 as=0.1218 ps=1.42 w=0.42 l=0.5
X77 VL.t1 DEC2[2].t0 a_6452_6264.t1 GND.t52 sky130_fd_pr__nfet_g5v0d10v5 ad=0.1218 pd=1.42 as=0.1218 ps=1.42 w=0.42 l=0.5
X78 GND.t59 GND.t60 GND.t5 sky130_fd_pr__res_xhigh_po_1p41 l=4.71
X79 a_1886_4223.t1 DEC0[2].t10 rseg_2_v3_0.v33.t1 GND.t67 sky130_fd_pr__nfet_g5v0d10v5 ad=0.1218 pd=1.42 as=0.1218 ps=1.42 w=0.42 l=0.5
X80 a_6452_6264.t4 DEC1[1].t3 a_2438_4223.t3 GND.t0 sky130_fd_pr__nfet_g5v0d10v5 ad=0.1218 pd=1.42 as=0.1218 ps=1.42 w=0.42 l=0.5
X81 rseg_2_v3_0.v45.t2 rseg_2_v3_0.v44.t1 GND.t45 sky130_fd_pr__res_xhigh_po_1p41 l=5.73
X82 rseg_2_v3_0.v21.t2 rseg_2_v3_0.v20.t2 GND.t6 sky130_fd_pr__res_xhigh_po_1p41 l=4.86
X83 rseg_2_v3_0.v29.t1 rseg_2_v3_0.v30.t0 GND.t5 sky130_fd_pr__res_xhigh_po_1p41 l=4.65
X84 a_7004_6264.t0 DEC1[2].t0 a_3266_4223.t0 GND.t26 sky130_fd_pr__nfet_g5v0d10v5 ad=0.1218 pd=1.42 as=0.1218 ps=1.42 w=0.42 l=0.5
X85 a_4922_4223.t1 DEC0[2].t11 rseg_2_v3_0.v46.t1 GND.t92 sky130_fd_pr__nfet_g5v0d10v5 ad=0.1218 pd=1.42 as=0.1218 ps=1.42 w=0.42 l=0.5
X86 a_5198_4223.t4 DEC0[1].t12 rseg_2_v3_0.v28.t2 GND.t35 sky130_fd_pr__nfet_g5v0d10v5 ad=0.1218 pd=1.42 as=0.1218 ps=1.42 w=0.42 l=0.5
X87 rseg_2_v3_0.v23.t2 rseg_2_v3_0.v24.t1 GND.t6 sky130_fd_pr__res_xhigh_po_1p41 l=4.71
X88 a_5198_4223.t3 DEC0[0].t12 rseg_2_v3_0.v12.t1 GND.t48 sky130_fd_pr__nfet_g5v0d10v5 ad=0.1218 pd=1.42 as=0.1218 ps=1.42 w=0.42 l=0.5
X89 a_4094_4223.t2 DEC0[0].t13 rseg_2_v3_0.v13.t2 GND.t51 sky130_fd_pr__nfet_g5v0d10v5 ad=0.1218 pd=1.42 as=0.1218 ps=1.42 w=0.42 l=0.5
X90 a_1334_4223.t3 DEC0[1].t13 rseg_2_v3_0.v21.t0 GND.t41 sky130_fd_pr__nfet_g5v0d10v5 ad=0.1218 pd=1.42 as=0.1218 ps=1.42 w=0.42 l=0.5
X91 a_1610_4223.t1 DEC0[2].t12 rseg_2_v3_0.v35.t1 GND.t18 sky130_fd_pr__nfet_g5v0d10v5 ad=0.1218 pd=1.42 as=0.1218 ps=1.42 w=0.42 l=0.5
X92 rseg_2_v3_0.v35.t2 rseg_2_v3_0.v36.t1 GND.t4 sky130_fd_pr__res_xhigh_po_1p41 l=4.86
X93 rseg_2_v3_0.v31.t2 rseg_2_v3_0.v30.t2 GND.t5 sky130_fd_pr__res_xhigh_po_1p41 l=4.71
X94 a_6176_6264.t3 DEC1[1].t4 a_1886_4223.t0 GND.t41 sky130_fd_pr__nfet_g5v0d10v5 ad=0.1218 pd=1.42 as=0.1218 ps=1.42 w=0.42 l=0.5
X95 a_5900_6264.t4 DEC1[2].t1 a_2714_4223.t4 GND.t84 sky130_fd_pr__nfet_g5v0d10v5 ad=0.1218 pd=1.42 as=0.1218 ps=1.42 w=0.42 l=0.5
X96 rseg_2_v3_0.v47.t1 rseg_2_v3_0.v46.t0 GND.t45 sky130_fd_pr__res_xhigh_po_1p41 l=6.09
X97 a_6728_6264.t5 DEC1[2].t2 a_1058_4223.t1 GND.t63 sky130_fd_pr__nfet_g5v0d10v5 ad=0.1218 pd=1.42 as=0.1218 ps=1.42 w=0.42 l=0.5
X98 VH.t2 DEC2[2].t1 a_6728_6264.t1 GND.t34 sky130_fd_pr__nfet_g5v0d10v5 ad=0.1218 pd=1.42 as=0.1218 ps=1.42 w=0.42 l=0.5
X99 rseg_2_v3_0.v19.t0 rseg_2_v3_0.v20.t0 GND.t6 sky130_fd_pr__res_xhigh_po_1p41 l=4.86
X100 rseg_2_v3_0.v29.t0 rseg_2_v3_0.v28.t1 GND.t5 sky130_fd_pr__res_xhigh_po_1p41 l=4.65
X101 a_4094_4223.t3 DEC0[1].t14 rseg_2_v3_0.v29.t2 GND.t30 sky130_fd_pr__nfet_g5v0d10v5 ad=0.1218 pd=1.42 as=0.1218 ps=1.42 w=0.42 l=0.5
X102 a_5474_4223.t3 DEC0[2].t13 rseg_2_v3_0.v42.t0 GND.t89 sky130_fd_pr__nfet_g5v0d10v5 ad=0.1218 pd=1.42 as=0.1218 ps=1.42 w=0.42 l=0.5
X103 a_4922_4223.t3 DEC0[1].t15 rseg_2_v3_0.v30.t1 GND.t21 sky130_fd_pr__nfet_g5v0d10v5 ad=0.1218 pd=1.42 as=0.1218 ps=1.42 w=0.42 l=0.5
X104 a_6452_6264.t5 DEC1[2].t3 a_2990_4223.t3 GND.t83 sky130_fd_pr__nfet_g5v0d10v5 ad=0.1218 pd=1.42 as=0.1218 ps=1.42 w=0.42 l=0.5
X105 a_7004_6264.t1 DEC1[3].t2 a_5198_4223.t0 GND.t70 sky130_fd_pr__nfet_g5v0d10v5 ad=0.1218 pd=1.42 as=0.1218 ps=1.42 w=0.42 l=0.5
X106 a_4370_4223.t0 DEC0[2].t14 rseg_2_v3_0.v47.t0 GND.t10 sky130_fd_pr__nfet_g5v0d10v5 ad=0.1218 pd=1.42 as=0.1218 ps=1.42 w=0.42 l=0.5
X107 a_5198_4223.t2 DEC0[2].t15 rseg_2_v3_0.v44.t0 GND.t71 sky130_fd_pr__nfet_g5v0d10v5 ad=0.1218 pd=1.42 as=0.1218 ps=1.42 w=0.42 l=0.5
X108 rseg_2_v3_0.v7.t2 rseg_2_v3_0.v8.t2 GND.t1 sky130_fd_pr__res_xhigh_po_1p41 l=6.65
X109 rseg_2_v3_0.v43.t1 rseg_2_v3_0.v42.t1 GND.t45 sky130_fd_pr__res_xhigh_po_1p41 l=5.47
X110 rseg_2_v3_0.v9.t2 rseg_2_v3_0.v8.t1 GND.t15 sky130_fd_pr__res_xhigh_po_1p41 l=6.35
X111 rseg_2_v3_0.v27.t2 rseg_2_v3_0.v26.t1 GND.t5 sky130_fd_pr__res_xhigh_po_1p41 l=4.65
X112 a_7004_6264.t2 DEC1[0].t2 a_4646_4223.t0 GND.t25 sky130_fd_pr__nfet_g5v0d10v5 ad=0.1218 pd=1.42 as=0.1218 ps=1.42 w=0.42 l=0.5
X113 GND.t75 GND.t76 GND.t6 sky130_fd_pr__res_xhigh_po_1p41 l=4.71
X114 a_6728_6264.t3 DEC1[0].t3 a_4370_4223.t3 GND.t94 sky130_fd_pr__nfet_g5v0d10v5 ad=0.1218 pd=1.42 as=0.1218 ps=1.42 w=0.42 l=0.5
X115 rseg_2_v3_0.v5.t0 rseg_2_v3_0.v4.t0 GND.t1 sky130_fd_pr__res_xhigh_po_1p41 l=7.88
X116 GND.t103 GND.t104 GND.t4 sky130_fd_pr__res_xhigh_po_1p41 l=4.76
X117 rseg_2_v3_0.v41.t0 rseg_2_v3_0.v40.t0 GND.t42 sky130_fd_pr__res_xhigh_po_1p41 l=5.22
X118 rseg_2_v3_0.v39.t0 rseg_2_v3_0.v38.t0 GND.t4 sky130_fd_pr__res_xhigh_po_1p41 l=5.01
X119 GND.t101 GND.t102 GND.t78 sky130_fd_pr__res_xhigh_po_1p41 l=6.35
X120 a_6176_6264.t5 DEC1[2].t4 a_1334_4223.t2 GND.t77 sky130_fd_pr__nfet_g5v0d10v5 ad=0.1218 pd=1.42 as=0.1218 ps=1.42 w=0.42 l=0.5
X121 VH.t1 DEC2[0].t0 a_6176_6264.t0 GND.t27 sky130_fd_pr__nfet_g5v0d10v5 ad=0.1218 pd=1.42 as=0.1218 ps=1.42 w=0.42 l=0.5
X122 rseg_2_v3_0.v37.t2 rseg_2_v3_0.v36.t2 GND.t4 sky130_fd_pr__res_xhigh_po_1p41 l=4.91
X123 a_4646_4223.t3 DEC0[1].t16 rseg_2_v3_0.v32.t3 GND.t97 sky130_fd_pr__nfet_g5v0d10v5 ad=0.1218 pd=1.42 as=0.1218 ps=1.42 w=0.42 l=0.5
X124 a_5900_6264.t0 DEC1[3].t3 a_3266_4223.t1 GND.t49 sky130_fd_pr__nfet_g5v0d10v5 ad=0.1218 pd=1.42 as=0.1218 ps=1.42 w=0.42 l=0.5
X125 a_6728_6264.t2 DEC1[3].t4 a_3818_4223.t0 GND.t93 sky130_fd_pr__nfet_g5v0d10v5 ad=0.1218 pd=1.42 as=0.1218 ps=1.42 w=0.42 l=0.5
X126 a_4094_4223.t1 DEC0[2].t16 rseg_2_v3_0.v45.t0 GND.t29 sky130_fd_pr__nfet_g5v0d10v5 ad=0.1218 pd=1.42 as=0.1218 ps=1.42 w=0.42 l=0.5
X127 a_2714_4223.t2 DEC0[0].t14 rseg_2_v3_0.v4.t2 GND.t8 sky130_fd_pr__nfet_g5v0d10v5 ad=0.1218 pd=1.42 as=0.1218 ps=1.42 w=0.42 l=0.5
X128 rseg_2_v3_0.v11.t2 rseg_2_v3_0.v12.t2 GND.t15 sky130_fd_pr__res_xhigh_po_1p41 l=5.73
X129 a_3542_4223.t2 DEC0[0].t15 rseg_2_v3_0.v9.t1 GND.t39 sky130_fd_pr__nfet_g5v0d10v5 ad=0.1218 pd=1.42 as=0.1218 ps=1.42 w=0.42 l=0.5
X130 a_4370_4223.t2 DEC0[0].t16 rseg_2_v3_0.v15.t2 GND.t81 sky130_fd_pr__nfet_g5v0d10v5 ad=0.1218 pd=1.42 as=0.1218 ps=1.42 w=0.42 l=0.5
X131 rseg_2_v3_0.v27.t0 rseg_2_v3_0.v28.t0 GND.t5 sky130_fd_pr__res_xhigh_po_1p41 l=4.71
X132 rseg_2_v3_0.v19.t2 rseg_2_v3_0.v18.t2 GND.t6 sky130_fd_pr__res_xhigh_po_1p41 l=4.96
X133 rseg_2_v3_0.v41.t2 rseg_2_v3_0.v42.t2 GND.t45 sky130_fd_pr__res_xhigh_po_1p41 l=5.32
X134 rseg_2_v3_0.v11.t1 rseg_2_v3_0.v10.t2 GND.t15 sky130_fd_pr__res_xhigh_po_1p41 l=5.94
X135 a_6452_6264.t2 DEC1[0].t4 a_4922_4223.t0 GND.t68 sky130_fd_pr__nfet_g5v0d10v5 ad=0.1218 pd=1.42 as=0.1218 ps=1.42 w=0.42 l=0.5
X136 VL.t2 DEC2[0].t1 a_5900_6264.t3 GND.t64 sky130_fd_pr__nfet_g5v0d10v5 ad=0.1218 pd=1.42 as=0.1218 ps=1.42 w=0.42 l=0.5
X137 rseg_2_v3_0.v33.t0 rseg_2_v3_0.v32.t0 GND.t4 sky130_fd_pr__res_xhigh_po_1p41 l=4.76
X138 GND.t2 GND.t3 GND.t1 sky130_fd_pr__res_xhigh_po_1p41 l=6.65
R0 rseg_2_v3_0.v47.t0 rseg_2_v3_0.v47.n0 237.56
R1 rseg_2_v3_0.v47.n0 rseg_2_v3_0.v47.t1 10.6178
R2 rseg_2_v3_0.v47.n0 rseg_2_v3_0.v47.t2 10.5739
R3 V48.n0 V48.t1 238.077
R4 V48.n0 V48.t0 10.612
R5 V48 V48.n0 1.29821
R6 GND.n81 GND.n33 32327.7
R7 GND.n33 GND.n32 32324.4
R8 GND.n83 GND.n32 32321.1
R9 GND.n83 GND.n81 32317.8
R10 GND.n78 GND.n53 10050.6
R11 GND.n78 GND.n54 10050.6
R12 GND.n60 GND.n53 9474.26
R13 GND.n69 GND.n54 9474.26
R14 GND.n102 GND.n3 8548.9
R15 GND.n101 GND.n3 8548.9
R16 GND.n90 GND.n19 8548.9
R17 GND.n89 GND.n19 8548.9
R18 GND.n102 GND.n4 7972.6
R19 GND.n94 GND.n4 7972.6
R20 GND.n94 GND.n14 7972.6
R21 GND.n90 GND.n14 7972.6
R22 GND.n101 GND.n5 7972.6
R23 GND.n95 GND.n5 7972.6
R24 GND.n95 GND.n13 7972.6
R25 GND.n89 GND.n13 7972.6
R26 GND.n73 GND.n59 4597.17
R27 GND.n65 GND.n59 4597.17
R28 GND.n73 GND.n60 4020.88
R29 GND.n69 GND.n65 4020.88
R30 GND.n77 GND.n76 1153.51
R31 GND.n76 GND.n75 1083.11
R32 GND.n61 GND.n16 1083.11
R33 GND.n91 GND.n18 981.836
R34 GND.n83 GND.n82 926.929
R35 GND.n93 GND.n15 911.436
R36 GND.n93 GND.n92 911.436
R37 GND.n92 GND.n91 911.436
R38 GND.n62 GND.n61 739.765
R39 GND.n104 GND.n1 675.013
R40 GND.n63 GND.n2 601.977
R41 GND.n92 GND.n16 601.977
R42 GND.n62 GND.n15 601.977
R43 GND.n70 GND.n60 576.293
R44 GND.n70 GND.n69 576.293
R45 GND.n52 GND.n14 576.293
R46 GND.n52 GND.n13 576.293
R47 GND.n67 GND.n4 576.293
R48 GND.n67 GND.n5 576.293
R49 GND.n103 GND.n2 568.095
R50 GND.n84 GND.n23 566.203
R51 GND.n6 GND.n1 542.871
R52 GND.n74 GND.n56 530.072
R53 GND.n96 GND.n12 514.26
R54 GND.n100 GND.n99 496.188
R55 GND.n88 GND.n87 494.683
R56 GND.n87 GND.n18 487.154
R57 GND.n39 GND.n38 483.003
R58 GND.n98 GND.n97 475.86
R59 GND.n21 GND.n20 472.471
R60 GND.n85 GND.n84 461.243
R61 GND.n38 GND.n37 461.243
R62 GND.n75 GND.n74 459.671
R63 GND.n64 GND.n63 459.671
R64 GND.n100 GND.n6 438.966
R65 GND.n88 GND.n21 438.966
R66 GND.n97 GND.n96 435.577
R67 GND.n64 GND.n0 415.248
R68 GND.n99 GND.n98 415.248
R69 GND.n20 GND.n12 397.176
R70 GND.n86 GND.n85 390.416
R71 GND.n63 GND.n62 343.341
R72 GND.n15 GND.n2 343.341
R73 GND.n46 GND.n23 312.353
R74 GND.n104 GND.n103 306.825
R75 GND GND.n0 303.06
R76 GND.n48 GND.n47 299.553
R77 GND GND.n104 298.918
R78 GND.n47 GND.n46 253.26
R79 GND.n40 GND.n39 251.339
R80 GND.n42 GND.n41 249.207
R81 GND.n44 GND.n43 229.579
R82 GND.n50 GND.n49 226.463
R83 GND.n57 GND.n33 212.213
R84 GND.n41 GND.n40 188.194
R85 GND.n99 GND.n7 184.471
R86 GND.n97 GND.n11 184.471
R87 GND.n30 GND.n12 184.471
R88 GND.n27 GND.n21 184.471
R89 GND.n87 GND.n86 184.471
R90 GND.n36 GND.n6 184.471
R91 GND.n45 GND.n44 179.019
R92 GND.n37 GND.n36 179.004
R93 GND.n26 GND.n22 173.474
R94 GND.t71 GND.t89 173.19
R95 GND.t92 GND.t71 173.19
R96 GND.t82 GND.t92 173.19
R97 GND.t53 GND.t11 173.19
R98 GND.t12 GND.t0 173.19
R99 GND.t0 GND.t41 173.19
R100 GND.t41 GND.t7 173.19
R101 GND.t47 GND.t48 173.19
R102 GND.t48 GND.t91 173.19
R103 GND.t91 GND.t98 173.19
R104 GND.t81 GND.t51 173.19
R105 GND.t51 GND.t16 173.19
R106 GND.t16 GND.t39 173.19
R107 GND.t55 GND.t39 173.19
R108 GND.t55 GND.t36 173.19
R109 GND.t8 GND.t36 173.19
R110 GND.t9 GND.t8 173.19
R111 GND.t99 GND.t9 173.19
R112 GND.t56 GND.t99 173.19
R113 GND.t31 GND.t56 173.19
R114 GND.t13 GND.t23 173.19
R115 GND.n35 GND.n34 170.487
R116 GND.n25 GND.n24 170.274
R117 GND.t1 GND.t31 165.66
R118 GND.t46 GND.t63 155.619
R119 GND.t54 GND.t83 155.619
R120 GND.t77 GND.t80 155.619
R121 GND.n10 GND.n9 152.139
R122 GND.n31 GND.n30 151.696
R123 GND.n29 GND.n28 151.5
R124 GND.n67 GND.n8 146.25
R125 GND.n68 GND.n67 146.25
R126 GND.n52 GND.n17 146.25
R127 GND.n79 GND.n52 146.25
R128 GND.n19 GND.n18 146.25
R129 GND.n82 GND.n19 146.25
R130 GND.n59 GND.n56 146.25
R131 GND.n59 GND.n58 146.25
R132 GND.n70 GND.n55 146.25
R133 GND.n71 GND.n70 146.25
R134 GND.n78 GND.n77 146.25
R135 GND.n79 GND.n78 146.25
R136 GND.n3 GND.n1 146.25
R137 GND.n57 GND.n3 146.25
R138 GND.n80 GND.t84 143.697
R139 GND.n43 GND.n42 143.393
R140 GND.n28 GND.n27 138.897
R141 GND.t35 GND.t70 138.049
R142 GND.t21 GND.t93 138.049
R143 GND.t22 GND.t17 138.049
R144 GND.t30 GND.t49 138.049
R145 GND.n49 GND.n48 135.073
R146 GND.t89 GND.n57 133.657
R147 GND.t7 GND.n79 133.657
R148 GND.n79 GND.t47 133.657
R149 GND.n82 GND.t13 133.657
R150 GND.n11 GND.n10 133.137
R151 GND.n86 GND.n22 131.857
R152 GND.t25 GND.t57 131.774
R153 GND.t94 GND.t96 131.774
R154 GND.n34 GND.n7 125.457
R155 GND.t10 GND.t78 124.873
R156 GND.n36 GND.n35 120.55
R157 GND.t19 GND.t27 120.48
R158 GND.t50 GND.t58 120.48
R159 GND.n56 GND.n0 114.825
R160 GND.t6 GND.t12 110.439
R161 GND.n27 GND.n26 110.311
R162 GND.n58 GND.t10 107.302
R163 GND.n9 GND.n7 106.257
R164 GND.t24 GND.t4 106.047
R165 GND.t95 GND.t40 105.419
R166 GND.t28 GND.t37 105.419
R167 GND.t100 GND.t74 102.909
R168 GND.n24 GND.n11 96.4436
R169 GND.n72 GND.t79 95.3798
R170 GND.n66 GND.t26 95.3798
R171 GND.n71 GND.t18 92.2424
R172 GND.t68 GND.n68 92.2424
R173 GND.t98 GND.t15 92.2424
R174 GND.n30 GND.n29 88.9769
R175 GND.t20 GND.t34 87.8499
R176 GND.t14 GND.t52 87.8499
R177 GND.t97 GND.t5 85.9674
R178 GND.t37 GND.t34 85.3399
R179 GND.t20 GND.t52 85.3399
R180 GND.t67 GND.n71 80.9474
R181 GND.n68 GND.t38 80.9474
R182 GND.t15 GND.t81 80.9474
R183 GND.n75 GND.n55 70.4005
R184 GND.n63 GND.n55 70.4005
R185 GND.n77 GND.n16 70.4005
R186 GND.n92 GND.n17 70.4005
R187 GND.n20 GND.n17 70.4005
R188 GND.n15 GND.n8 70.4005
R189 GND.n98 GND.n8 70.4005
R190 GND.t79 GND.t100 70.28
R191 GND.t74 GND.t19 70.28
R192 GND.t29 GND.t95 67.77
R193 GND.t40 GND.t28 67.77
R194 GND.n58 GND.t29 65.8875
R195 GND.t11 GND.t6 62.7501
R196 GND.t90 GND.n66 60.2401
R197 GND.t27 GND.t24 52.7101
R198 GND.t64 GND.t67 52.7101
R199 GND.t38 GND.t50 52.7101
R200 GND.t58 GND.t35 52.7101
R201 GND.t5 GND.t105 52.0826
R202 GND.t42 GND.t82 41.4152
R203 GND.t18 GND.t25 41.4152
R204 GND.t57 GND.t94 41.4152
R205 GND.t96 GND.t68 41.4152
R206 GND.n35 GND.t102 39.3159
R207 GND.n34 GND.t103 39.3159
R208 GND.n9 GND.t104 39.3159
R209 GND.n10 GND.t61 39.3159
R210 GND.n24 GND.t62 39.3159
R211 GND.n25 GND.t43 39.3159
R212 GND.n29 GND.t44 39.3159
R213 GND.n28 GND.t65 39.3159
R214 GND.n26 GND.t66 39.3159
R215 GND.n22 GND.t32 39.3159
R216 GND.n85 GND.t33 39.3159
R217 GND.n23 GND.t3 39.3159
R218 GND.n46 GND.t2 39.3159
R219 GND.n47 GND.t73 39.3159
R220 GND.n48 GND.t72 39.3159
R221 GND.n49 GND.t76 39.3159
R222 GND.n45 GND.t75 39.3159
R223 GND.n44 GND.t60 39.3159
R224 GND.n43 GND.t59 39.3159
R225 GND.n42 GND.t88 39.3159
R226 GND.n41 GND.t87 39.3159
R227 GND.n40 GND.t86 39.3159
R228 GND.n39 GND.t85 39.3159
R229 GND.n37 GND.t101 39.3159
R230 GND.t70 GND.t21 35.1403
R231 GND.t93 GND.t97 35.1403
R232 GND.t105 GND.t22 35.1403
R233 GND.t17 GND.t30 35.1403
R234 GND.t49 GND.t90 35.1403
R235 GND.t26 GND.t46 17.5704
R236 GND.t54 GND.t63 17.5704
R237 GND.t80 GND.t83 17.5704
R238 GND.t69 GND.t77 17.5704
R239 GND.t84 GND.t53 17.5704
R240 GND.n65 GND.n64 17.2064
R241 GND.n72 GND.n65 17.2064
R242 GND.n74 GND.n73 17.2064
R243 GND.n73 GND.n72 17.2064
R244 GND.t4 GND.t64 14.4329
R245 GND.n84 GND.n83 13.296
R246 GND.n38 GND.n33 13.296
R247 GND.n51 GND.t69 11.2954
R248 GND.n89 GND.n88 8.47876
R249 GND.t55 GND.n89 8.47876
R250 GND.n96 GND.n95 8.47876
R251 GND.n95 GND.t54 8.47876
R252 GND.n101 GND.n100 8.47876
R253 GND.t20 GND.n101 8.47876
R254 GND.n91 GND.n90 8.47876
R255 GND.n90 GND.t55 8.47876
R256 GND.n94 GND.n93 8.47876
R257 GND.t54 GND.n94 8.47876
R258 GND.n103 GND.n102 8.47876
R259 GND.n102 GND.t20 8.47876
R260 GND.n72 GND.t14 7.53045
R261 GND.t23 GND.t1 7.53045
R262 GND.n61 GND.n54 7.13465
R263 GND.n66 GND.n54 7.13465
R264 GND.n76 GND.n53 7.13465
R265 GND.n66 GND.n53 7.13465
R266 GND.n31 GND.n25 6.4005
R267 GND.t45 GND.t42 6.27546
R268 GND.n50 GND.n45 3.11845
R269 GND.n32 GND.n31 2.51123
R270 GND.n51 GND.n32 2.51123
R271 GND.n81 GND.n50 2.51123
R272 GND.n81 GND.n80 2.51123
R273 GND.t78 GND.t45 0.627996
R274 GND.n80 GND.n51 0.627996
R275 DEC0[1].n0 DEC0[1].t8 213.218
R276 DEC0[1].n15 DEC0[1].t9 212.554
R277 DEC0[1].n14 DEC0[1].t13 212.554
R278 DEC0[1].n13 DEC0[1].t10 212.554
R279 DEC0[1].n12 DEC0[1].t5 212.554
R280 DEC0[1].n11 DEC0[1].t2 212.554
R281 DEC0[1].n10 DEC0[1].t11 212.554
R282 DEC0[1].n9 DEC0[1].t6 212.554
R283 DEC0[1].n8 DEC0[1].t3 212.554
R284 DEC0[1].n7 DEC0[1].t1 212.554
R285 DEC0[1].n6 DEC0[1].t7 212.554
R286 DEC0[1].n5 DEC0[1].t4 212.554
R287 DEC0[1].n4 DEC0[1].t14 212.554
R288 DEC0[1].n3 DEC0[1].t0 212.554
R289 DEC0[1].n2 DEC0[1].t16 212.554
R290 DEC0[1].n1 DEC0[1].t15 212.554
R291 DEC0[1].n0 DEC0[1].t12 212.554
R292 DEC0[1].n1 DEC0[1].n0 0.663962
R293 DEC0[1].n2 DEC0[1].n1 0.663962
R294 DEC0[1].n3 DEC0[1].n2 0.663962
R295 DEC0[1].n4 DEC0[1].n3 0.663962
R296 DEC0[1].n5 DEC0[1].n4 0.663962
R297 DEC0[1].n6 DEC0[1].n5 0.663962
R298 DEC0[1].n7 DEC0[1].n6 0.663962
R299 DEC0[1].n8 DEC0[1].n7 0.663962
R300 DEC0[1].n9 DEC0[1].n8 0.663962
R301 DEC0[1].n10 DEC0[1].n9 0.663962
R302 DEC0[1].n11 DEC0[1].n10 0.663962
R303 DEC0[1].n12 DEC0[1].n11 0.663962
R304 DEC0[1].n13 DEC0[1].n12 0.663962
R305 DEC0[1].n14 DEC0[1].n13 0.663962
R306 DEC0[1].n15 DEC0[1].n14 0.663962
R307 DEC0[1] DEC0[1].n15 0.238481
R308 rseg_2_v3_0.v31.n0 rseg_2_v3_0.v31.t1 237.343
R309 rseg_2_v3_0.v31.n0 rseg_2_v3_0.v31.t2 10.6701
R310 rseg_2_v3_0.v31.t0 rseg_2_v3_0.v31.n0 10.5739
R311 a_4370_4223.n0 a_4370_4223.t2 251.719
R312 a_4370_4223.t0 a_4370_4223.n1 248.475
R313 a_4370_4223.n0 a_4370_4223.t1 241.631
R314 a_4370_4223.n1 a_4370_4223.t3 238.916
R315 a_4370_4223.n1 a_4370_4223.n0 3.24425
R316 DEC1[3].n2 DEC1[3].t3 213.218
R317 DEC1[3].n0 DEC1[3].t2 213.218
R318 DEC1[3].n2 DEC1[3].t1 212.554
R319 DEC1[3].n1 DEC1[3].t0 212.554
R320 DEC1[3].n0 DEC1[3].t4 212.554
R321 DEC1[3].n1 DEC1[3].n0 0.663962
R322 DEC1[3] DEC1[3].n1 0.457231
R323 DEC1[3] DEC1[3].n2 0.207231
R324 a_5474_4223.n0 a_5474_4223.t3 250.803
R325 a_5474_4223.n1 a_5474_4223.t1 248.238
R326 a_5474_4223.n0 a_5474_4223.t2 240.714
R327 a_5474_4223.t0 a_5474_4223.n1 239.833
R328 a_5474_4223.n1 a_5474_4223.n0 2.56508
R329 a_6452_6264.n2 a_6452_6264.t4 242.181
R330 a_6452_6264.n0 a_6452_6264.t1 240.082
R331 a_6452_6264.n0 a_6452_6264.t3 239.415
R332 a_6452_6264.n2 a_6452_6264.t5 239.248
R333 a_6452_6264.n1 a_6452_6264.t2 239.248
R334 a_6452_6264.t0 a_6452_6264.n3 239.248
R335 a_6452_6264.n1 a_6452_6264.n0 3.40883
R336 a_6452_6264.n3 a_6452_6264.n1 2.93383
R337 a_6452_6264.n3 a_6452_6264.n2 2.93383
R338 rseg_2_v3_0.v15.n0 rseg_2_v3_0.v15.t2 237.542
R339 rseg_2_v3_0.v15.n0 rseg_2_v3_0.v15.t1 10.5773
R340 rseg_2_v3_0.v15.t0 rseg_2_v3_0.v15.n0 10.577
R341 rseg_2_v3_0.v14 rseg_2_v3_0.v14.t2 237.291
R342 rseg_2_v3_0.v14.n0 rseg_2_v3_0.v14.t0 10.5327
R343 rseg_2_v3_0.v14.n0 rseg_2_v3_0.v14.t1 10.5285
R344 rseg_2_v3_0.v14 rseg_2_v3_0.v14.n0 0.941624
R345 DEC0[0].n0 DEC0[0].t11 213.218
R346 DEC0[0].n15 DEC0[0].t8 212.554
R347 DEC0[0].n14 DEC0[0].t5 212.554
R348 DEC0[0].n13 DEC0[0].t4 212.554
R349 DEC0[0].n12 DEC0[0].t3 212.554
R350 DEC0[0].n11 DEC0[0].t6 212.554
R351 DEC0[0].n10 DEC0[0].t0 212.554
R352 DEC0[0].n9 DEC0[0].t14 212.554
R353 DEC0[0].n8 DEC0[0].t2 212.554
R354 DEC0[0].n7 DEC0[0].t1 212.554
R355 DEC0[0].n6 DEC0[0].t15 212.554
R356 DEC0[0].n5 DEC0[0].t9 212.554
R357 DEC0[0].n4 DEC0[0].t13 212.554
R358 DEC0[0].n3 DEC0[0].t16 212.554
R359 DEC0[0].n2 DEC0[0].t10 212.554
R360 DEC0[0].n1 DEC0[0].t7 212.554
R361 DEC0[0].n0 DEC0[0].t12 212.554
R362 DEC0[0].n1 DEC0[0].n0 0.663962
R363 DEC0[0].n2 DEC0[0].n1 0.663962
R364 DEC0[0].n3 DEC0[0].n2 0.663962
R365 DEC0[0].n4 DEC0[0].n3 0.663962
R366 DEC0[0].n5 DEC0[0].n4 0.663962
R367 DEC0[0].n6 DEC0[0].n5 0.663962
R368 DEC0[0].n7 DEC0[0].n6 0.663962
R369 DEC0[0].n8 DEC0[0].n7 0.663962
R370 DEC0[0].n9 DEC0[0].n8 0.663962
R371 DEC0[0].n10 DEC0[0].n9 0.663962
R372 DEC0[0].n11 DEC0[0].n10 0.663962
R373 DEC0[0].n12 DEC0[0].n11 0.663962
R374 DEC0[0].n13 DEC0[0].n12 0.663962
R375 DEC0[0].n14 DEC0[0].n13 0.663962
R376 DEC0[0].n15 DEC0[0].n14 0.663962
R377 DEC0[0] DEC0[0].n15 0.209635
R378 rseg_2_v3_0.v2 rseg_2_v3_0.v2.t1 237.231
R379 rseg_2_v3_0.v2.n0 rseg_2_v3_0.v2.t0 10.6565
R380 rseg_2_v3_0.v2.n0 rseg_2_v3_0.v2.t2 10.5285
R381 rseg_2_v3_0.v2 rseg_2_v3_0.v2.n0 0.81529
R382 a_2438_4223.t0 a_2438_4223.n1 249.335
R383 a_2438_4223.n0 a_2438_4223.t1 247.23
R384 a_2438_4223.n0 a_2438_4223.t3 241.299
R385 a_2438_4223.n1 a_2438_4223.t2 239.248
R386 a_2438_4223.n1 a_2438_4223.n0 2.10675
R387 DEC0[2].n12 DEC0[2].t9 213.218
R388 DEC0[2].n0 DEC0[2].t13 213.218
R389 DEC0[2].n12 DEC0[2].t4 212.554
R390 DEC0[2].n13 DEC0[2].t12 212.554
R391 DEC0[2].n14 DEC0[2].t10 212.554
R392 DEC0[2].n11 DEC0[2].t5 212.554
R393 DEC0[2].n10 DEC0[2].t8 212.554
R394 DEC0[2].n9 DEC0[2].t7 212.554
R395 DEC0[2].n8 DEC0[2].t6 212.554
R396 DEC0[2].n7 DEC0[2].t3 212.554
R397 DEC0[2].n6 DEC0[2].t2 212.554
R398 DEC0[2].n5 DEC0[2].t0 212.554
R399 DEC0[2].n4 DEC0[2].t16 212.554
R400 DEC0[2].n3 DEC0[2].t14 212.554
R401 DEC0[2].n2 DEC0[2].t1 212.554
R402 DEC0[2].n1 DEC0[2].t11 212.554
R403 DEC0[2].n0 DEC0[2].t15 212.554
R404 DEC0[2].n1 DEC0[2].n0 0.663962
R405 DEC0[2].n2 DEC0[2].n1 0.663962
R406 DEC0[2].n3 DEC0[2].n2 0.663962
R407 DEC0[2].n4 DEC0[2].n3 0.663962
R408 DEC0[2].n5 DEC0[2].n4 0.663962
R409 DEC0[2].n6 DEC0[2].n5 0.663962
R410 DEC0[2].n7 DEC0[2].n6 0.663962
R411 DEC0[2].n8 DEC0[2].n7 0.663962
R412 DEC0[2].n9 DEC0[2].n8 0.663962
R413 DEC0[2].n10 DEC0[2].n9 0.663962
R414 DEC0[2].n11 DEC0[2].n10 0.663962
R415 DEC0[2].n14 DEC0[2].n13 0.663962
R416 DEC0[2].n13 DEC0[2].n12 0.663962
R417 DEC0[2] DEC0[2].n14 0.442808
R418 DEC0[2] DEC0[2].n11 0.221654
R419 rseg_2_v3_0.v43 rseg_2_v3_0.v43.t0 236.737
R420 rseg_2_v3_0.v43.n0 rseg_2_v3_0.v43.t1 10.7705
R421 rseg_2_v3_0.v43.n0 rseg_2_v3_0.v43.t2 10.7347
R422 rseg_2_v3_0.v43 rseg_2_v3_0.v43.n0 2.74678
R423 a_3818_4223.n0 a_3818_4223.t2 250.986
R424 a_3818_4223.n1 a_3818_4223.t1 249.524
R425 a_3818_4223.n0 a_3818_4223.t3 240.898
R426 a_3818_4223.t0 a_3818_4223.n1 239.649
R427 a_3818_4223.n1 a_3818_4223.n0 1.46092
R428 rseg_2_v3_0.v8 rseg_2_v3_0.v8.t0 236.044
R429 rseg_2_v3_0.v8.n0 rseg_2_v3_0.v8.t1 13.9493
R430 rseg_2_v3_0.v8.n0 rseg_2_v3_0.v8.t2 11.0147
R431 rseg_2_v3_0.v8 rseg_2_v3_0.v8.n0 4.72836
R432 a_3266_4223.n1 a_3266_4223.t3 250.435
R433 a_3266_4223.n0 a_3266_4223.t2 249.549
R434 a_3266_4223.n1 a_3266_4223.t4 240.347
R435 a_3266_4223.n0 a_3266_4223.t1 240.2
R436 a_3266_4223.t0 a_3266_4223.n2 240.2
R437 a_3266_4223.n2 a_3266_4223.n0 0.633833