* PEX produced on Wed Jun 11 01:32:27 WIB 2025 using ./iic-pex.sh with m=3 and s=1
* NGSPICE file created from top_segment_1.ext - technology: sky130A

.subckt top_segment_1_posim V0 V64 DEC[0] DEC[1] DEC[2] DEC[3] b[0] b[1] b[2] b[3] bb[0]
+ bb[1] bb[2] bb[3] VOUT GND
X0 a_1875_4028.t4 DEC[0].t0 rseg_1_v3_1.v7.t2 GND.t120 sky130_fd_pr__nfet_g5v0d10v5 ad=0.1218 pd=1.42 as=0.1218 ps=1.42 w=0.42 l=0.5
X1 GND.t45 GND.t46 GND.t6 sky130_fd_pr__res_xhigh_po_1p41 l=2.5
X2 rseg_1_v3_1.v11.t2 rseg_1_v3_1.v10.t2 GND.t53 sky130_fd_pr__res_xhigh_po_1p41 l=2.09
X3 rseg_1_v3_1.v34.t1 DEC[2].t0 a_337_4028.t2 GND.t122 sky130_fd_pr__nfet_g5v0d10v5 ad=0.1218 pd=1.42 as=0.1218 ps=1.42 w=0.42 l=0.5
X4 rseg_1_v3_1.v11.t1 DEC[0].t1 a_3049_5464.t4 GND.t119 sky130_fd_pr__nfet_g5v0d10v5 ad=0.1218 pd=1.42 as=0.1218 ps=1.42 w=0.42 l=0.5
X5 a_1323_4028.t3 DEC[2].t1 rseg_1_v3_1.v37.t2 GND.t15 sky130_fd_pr__nfet_g5v0d10v5 ad=0.1218 pd=1.42 as=0.1218 ps=1.42 w=0.42 l=0.5
X6 a_5799_6728.t2 bb[3].t0 a_n215_4028.t3 GND.t83 sky130_fd_pr__nfet_g5v0d10v5 ad=0.1218 pd=1.42 as=0.1218 ps=1.42 w=0.42 l=0.5
X7 rseg_1_v3_1.v10.t1 DEC[0].t2 a_2773_5464.t4 GND.t118 sky130_fd_pr__nfet_g5v0d10v5 ad=0.1218 pd=1.42 as=0.1218 ps=1.42 w=0.42 l=0.5
X8 a_3483_5464.t1 DEC[2].t2 rseg_1_v3_1.v44.t0 GND.t77 sky130_fd_pr__nfet_g5v0d10v5 ad=0.1218 pd=1.42 as=0.1218 ps=1.42 w=0.42 l=0.5
X9 rseg_1_v3_1.v61.t1 rseg_1_v3_1.v60.t1 GND.t20 sky130_fd_pr__res_xhigh_po_1p41 l=0.66
X10 rseg_1_v3_1.v13.t0 rseg_1_v3_1.v12.t0 GND.t53 sky130_fd_pr__res_xhigh_po_1p41 l=1.89
X11 a_1599_4028.t1 DEC[3].t0 rseg_1_v3_1.v54.t0 GND.t63 sky130_fd_pr__nfet_g5v0d10v5 ad=0.1218 pd=1.42 as=0.1218 ps=1.42 w=0.42 l=0.5
X12 a_7618_7809.t2 b[2].t0 a_7573_6728.t1 GND.t64 sky130_fd_pr__nfet_g5v0d10v5 ad=0.1218 pd=1.42 as=0.1218 ps=1.42 w=0.42 l=0.5
X13 GND.t54 GND.t55 GND.t47 sky130_fd_pr__res_xhigh_po_1p41 l=0.76
X14 rseg_1_v3_1.v39.t0 rseg_1_v3_1.v40.t0 GND.t5 sky130_fd_pr__res_xhigh_po_1p41 l=0.86
X15 rseg_1_v3_1.v3.t1 rseg_1_v3_1.v4.t0 GND.t6 sky130_fd_pr__res_xhigh_po_1p41 l=3.37
X16 rseg_1_v3_1.v15.t0 rseg_1_v3_1.v16.t1 GND.t53 sky130_fd_pr__res_xhigh_po_1p41 l=1.68
X17 a_4035_5464.t3 DEC[2].t3 rseg_1_v3_1.v46.t1 GND.t62 sky130_fd_pr__nfet_g5v0d10v5 ad=0.1218 pd=1.42 as=0.1218 ps=1.42 w=0.42 l=0.5
X18 a_8198_7809.t1 bb[1].t0 a_7010_7809.t2 GND.t126 sky130_fd_pr__nfet_g5v0d10v5 ad=0.1218 pd=1.42 as=0.1218 ps=1.42 w=0.42 l=0.5
X19 rseg_1_v3_1.v59.t1 DEC[3].t1 a_3049_5464.t0 GND.t8 sky130_fd_pr__nfet_g5v0d10v5 ad=0.1218 pd=1.42 as=0.1218 ps=1.42 w=0.42 l=0.5
X20 GND.t97 GND.t98 GND.t1 sky130_fd_pr__res_xhigh_po_1p41 l=1.32
X21 GND.t85 GND.t86 GND.t53 sky130_fd_pr__res_xhigh_po_1p41 l=2.35
X22 rseg_1_v3_1.v49.t0 rseg_1_v3_1.v50.t0 GND.t4 sky130_fd_pr__res_xhigh_po_1p41 l=0.76
X23 a_7314_7809.t2 bb[0].t0 VOUT.t1 GND.t17 sky130_fd_pr__nfet_g5v0d10v5 ad=0.1218 pd=1.42 as=0.1218 ps=1.42 w=0.42 l=0.5
X24 a_8198_7809.t0 bb[2].t0 a_6075_6728.t1 GND.t13 sky130_fd_pr__nfet_g5v0d10v5 ad=0.1218 pd=1.42 as=0.1218 ps=1.42 w=0.42 l=0.5
X25 a_1599_4028.t3 DEC[0].t3 rseg_1_v3_1.v6.t2 GND.t117 sky130_fd_pr__nfet_g5v0d10v5 ad=0.1218 pd=1.42 as=0.1218 ps=1.42 w=0.42 l=0.5
X26 rseg_1_v3_1.v7.t1 rseg_1_v3_1.v8.t1 GND.t6 sky130_fd_pr__res_xhigh_po_1p41 l=2.5
X27 a_1875_4028.t1 DEC[2].t4 rseg_1_v3_1.v39.t1 GND.t41 sky130_fd_pr__nfet_g5v0d10v5 ad=0.1218 pd=1.42 as=0.1218 ps=1.42 w=0.42 l=0.5
X28 rseg_1_v3_1.v50.t1 DEC[3].t2 a_337_4028.t1 GND.t48 sky130_fd_pr__nfet_g5v0d10v5 ad=0.1218 pd=1.42 as=0.1218 ps=1.42 w=0.42 l=0.5
X29 rseg_1_v3_1.v9.t2 DEC[0].t4 a_2497_5464.t3 GND.t116 sky130_fd_pr__nfet_g5v0d10v5 ad=0.1218 pd=1.42 as=0.1218 ps=1.42 w=0.42 l=0.5
X30 a_3483_5464.t2 DEC[0].t5 rseg_1_v3_1.v12.t2 GND.t115 sky130_fd_pr__nfet_g5v0d10v5 ad=0.1218 pd=1.42 as=0.1218 ps=1.42 w=0.42 l=0.5
X31 a_6351_6728.t2 bb[3].t1 a_337_4028.t0 GND.t25 sky130_fd_pr__nfet_g5v0d10v5 ad=0.1218 pd=1.42 as=0.1218 ps=1.42 w=0.42 l=0.5
X32 V0.t1 DEC[0].t6 a_n215_4028.t2 GND.t114 sky130_fd_pr__nfet_g5v0d10v5 ad=0.1218 pd=1.42 as=0.1218 ps=1.42 w=0.42 l=0.5
X33 rseg_1_v3_1.v57.t2 rseg_1_v3_1.v58.t2 GND.t20 sky130_fd_pr__res_xhigh_po_1p41 l=0.66
X34 rseg_1_v3_1.v49.t1 DEC[3].t3 a_61_4028.t0 GND.t92 sky130_fd_pr__nfet_g5v0d10v5 ad=0.1218 pd=1.42 as=0.1218 ps=1.42 w=0.42 l=0.5
X35 GND.t99 GND.t100 GND.t47 sky130_fd_pr__res_xhigh_po_1p41 l=0.91
X36 a_1047_4028.t0 DEC[3].t4 rseg_1_v3_1.v52.t2 GND.t27 sky130_fd_pr__nfet_g5v0d10v5 ad=0.1218 pd=1.42 as=0.1218 ps=1.42 w=0.42 l=0.5
X37 rseg_1_v3_1.v47.t0 rseg_1_v3_1.v48.t1 GND.t47 sky130_fd_pr__res_xhigh_po_1p41 l=0.76
X38 a_7573_6728.t0 b[3].t0 a_4311_5464.t3 GND.t9 sky130_fd_pr__nfet_g5v0d10v5 ad=0.1218 pd=1.42 as=0.1218 ps=1.42 w=0.42 l=0.5
X39 rseg_1_v3_1.v15.t1 rseg_1_v3_1.v14.t0 GND.t53 sky130_fd_pr__res_xhigh_po_1p41 l=1.73
X40 rseg_1_v3_1.v23.t0 rseg_1_v3_1.v24.t1 GND.t1 sky130_fd_pr__res_xhigh_po_1p41 l=1.32
X41 rseg_1_v3_1.v9.t1 rseg_1_v3_1.v8.t0 GND.t53 sky130_fd_pr__res_xhigh_po_1p41 l=2.35
X42 rseg_1_v3_1.v59.t2 rseg_1_v3_1.v60.t0 GND.t20 sky130_fd_pr__res_xhigh_po_1p41 l=0.66
X43 a_8474_7809.t1 bb[2].t1 a_5799_6728.t0 GND.t16 sky130_fd_pr__nfet_g5v0d10v5 ad=0.1218 pd=1.42 as=0.1218 ps=1.42 w=0.42 l=0.5
X44 rseg_1_v3_1.v27.t1 rseg_1_v3_1.v28.t1 GND.t0 sky130_fd_pr__res_xhigh_po_1p41 l=1.17
X45 a_1323_4028.t4 DEC[0].t7 rseg_1_v3_1.v5.t2 GND.t113 sky130_fd_pr__nfet_g5v0d10v5 ad=0.1218 pd=1.42 as=0.1218 ps=1.42 w=0.42 l=0.5
X46 rseg_1_v3_1.v43.t0 DEC[2].t5 a_3049_5464.t2 GND.t81 sky130_fd_pr__nfet_g5v0d10v5 ad=0.1218 pd=1.42 as=0.1218 ps=1.42 w=0.42 l=0.5
X47 rseg_1_v3_1.v19.t0 DEC[1].t0 a_613_4028.t0 GND.t35 sky130_fd_pr__nfet_g5v0d10v5 ad=0.1218 pd=1.42 as=0.1218 ps=1.42 w=0.42 l=0.5
X48 a_1599_4028.t2 DEC[2].t6 rseg_1_v3_1.v38.t1 GND.t24 sky130_fd_pr__nfet_g5v0d10v5 ad=0.1218 pd=1.42 as=0.1218 ps=1.42 w=0.42 l=0.5
X49 rseg_1_v3_1.v8.t2 DEC[0].t8 a_2221_5464.t4 GND.t112 sky130_fd_pr__nfet_g5v0d10v5 ad=0.1218 pd=1.42 as=0.1218 ps=1.42 w=0.42 l=0.5
X50 a_1599_4028.t0 DEC[1].t1 rseg_1_v3_1.v22.t0 GND.t32 sky130_fd_pr__nfet_g5v0d10v5 ad=0.1218 pd=1.42 as=0.1218 ps=1.42 w=0.42 l=0.5
X51 rseg_1_v3_1.v25.t2 rseg_1_v3_1.v26.t2 GND.t0 sky130_fd_pr__res_xhigh_po_1p41 l=1.22
X52 rseg_1_v3_1.v21.t0 rseg_1_v3_1.v20.t0 GND.t1 sky130_fd_pr__res_xhigh_po_1p41 l=1.37
X53 rseg_1_v3_1.v51.t2 rseg_1_v3_1.v50.t2 GND.t4 sky130_fd_pr__res_xhigh_po_1p41 l=0.71
X54 rseg_1_v3_1.v1.t0 rseg_1_v3_1.v2.t0 GND.t6 sky130_fd_pr__res_xhigh_po_1p41 l=4.24
X55 rseg_1_v3_1.v48.t0 DEC[3].t5 a_n215_4028.t4 GND.t132 sky130_fd_pr__nfet_g5v0d10v5 ad=0.1218 pd=1.42 as=0.1218 ps=1.42 w=0.42 l=0.5
X56 rseg_1_v3_1.v51.t1 DEC[3].t6 a_613_4028.t1 GND.t91 sky130_fd_pr__nfet_g5v0d10v5 ad=0.1218 pd=1.42 as=0.1218 ps=1.42 w=0.42 l=0.5
X57 rseg_1_v3_1.v27.t2 DEC[1].t2 a_3049_5464.t3 GND.t104 sky130_fd_pr__nfet_g5v0d10v5 ad=0.1218 pd=1.42 as=0.1218 ps=1.42 w=0.42 l=0.5
X58 rseg_1_v3_1.v41.t2 rseg_1_v3_1.v40.t2 GND.t47 sky130_fd_pr__res_xhigh_po_1p41 l=0.91
X59 a_4035_5464.t1 DEC[1].t3 rseg_1_v3_1.v30.t0 GND.t76 sky130_fd_pr__nfet_g5v0d10v5 ad=0.1218 pd=1.42 as=0.1218 ps=1.42 w=0.42 l=0.5
X60 rseg_1_v3_1.v35.t0 rseg_1_v3_1.v36.t0 GND.t5 sky130_fd_pr__res_xhigh_po_1p41 l=0.96
X61 a_7297_6728.t0 b[3].t1 a_4035_5464.t2 GND.t80 sky130_fd_pr__nfet_g5v0d10v5 ad=0.1218 pd=1.42 as=0.1218 ps=1.42 w=0.42 l=0.5
X62 rseg_1_v3_1.v56.t0 DEC[3].t7 a_2221_5464.t1 GND.t70 sky130_fd_pr__nfet_g5v0d10v5 ad=0.1218 pd=1.42 as=0.1218 ps=1.42 w=0.42 l=0.5
X63 a_7894_7809.t1 bb[2].t2 a_6351_6728.t1 GND.t125 sky130_fd_pr__nfet_g5v0d10v5 ad=0.1218 pd=1.42 as=0.1218 ps=1.42 w=0.42 l=0.5
X64 rseg_1_v3_1.v18.t1 DEC[1].t4 a_337_4028.t3 GND.t103 sky130_fd_pr__nfet_g5v0d10v5 ad=0.1218 pd=1.42 as=0.1218 ps=1.42 w=0.42 l=0.5
X65 rseg_1_v3_1.v51.t0 rseg_1_v3_1.v52.t0 GND.t4 sky130_fd_pr__res_xhigh_po_1p41 l=0.76
X66 rseg_1_v3_1.v47.t2 rseg_1_v3_1.v46.t2 GND.t47 sky130_fd_pr__res_xhigh_po_1p41 l=0.81
X67 a_7618_7809.t0 b[1].t0 a_7010_7809.t0 GND.t12 sky130_fd_pr__nfet_g5v0d10v5 ad=0.1218 pd=1.42 as=0.1218 ps=1.42 w=0.42 l=0.5
X68 rseg_1_v3_1.v42.t0 DEC[2].t7 a_2773_5464.t3 GND.t130 sky130_fd_pr__nfet_g5v0d10v5 ad=0.1218 pd=1.42 as=0.1218 ps=1.42 w=0.42 l=0.5
X69 a_1047_4028.t3 DEC[0].t9 rseg_1_v3_1.v4.t2 GND.t111 sky130_fd_pr__nfet_g5v0d10v5 ad=0.1218 pd=1.42 as=0.1218 ps=1.42 w=0.42 l=0.5
X70 a_1323_4028.t0 DEC[1].t5 rseg_1_v3_1.v21.t1 GND.t19 sky130_fd_pr__nfet_g5v0d10v5 ad=0.1218 pd=1.42 as=0.1218 ps=1.42 w=0.42 l=0.5
X71 GND.t128 GND.t129 GND.t4 sky130_fd_pr__res_xhigh_po_1p41 l=0.81
X72 rseg_1_v3_1.v33.t1 DEC[2].t8 a_61_4028.t2 GND.t61 sky130_fd_pr__nfet_g5v0d10v5 ad=0.1218 pd=1.42 as=0.1218 ps=1.42 w=0.42 l=0.5
X73 a_1047_4028.t1 DEC[2].t9 rseg_1_v3_1.v36.t2 GND.t50 sky130_fd_pr__nfet_g5v0d10v5 ad=0.1218 pd=1.42 as=0.1218 ps=1.42 w=0.42 l=0.5
X74 rseg_1_v3_1.v55.t1 rseg_1_v3_1.v54.t2 GND.t4 sky130_fd_pr__res_xhigh_po_1p41 l=0.71
X75 rseg_1_v3_1.v26.t1 DEC[1].t6 a_2773_5464.t2 GND.t79 sky130_fd_pr__nfet_g5v0d10v5 ad=0.1218 pd=1.42 as=0.1218 ps=1.42 w=0.42 l=0.5
X76 rseg_1_v3_1.v59.t0 rseg_1_v3_1.v58.t0 GND.t20 sky130_fd_pr__res_xhigh_po_1p41 l=0.66
X77 rseg_1_v3_1.v27.t0 rseg_1_v3_1.v26.t0 GND.t0 sky130_fd_pr__res_xhigh_po_1p41 l=1.17
X78 a_3759_5464.t0 DEC[1].t7 rseg_1_v3_1.v29.t0 GND.t58 sky130_fd_pr__nfet_g5v0d10v5 ad=0.1218 pd=1.42 as=0.1218 ps=1.42 w=0.42 l=0.5
X79 a_7894_7809.t2 b[2].t1 a_7297_6728.t1 GND.t11 sky130_fd_pr__nfet_g5v0d10v5 ad=0.1218 pd=1.42 as=0.1218 ps=1.42 w=0.42 l=0.5
X80 a_7021_6728.t0 b[3].t2 a_3759_5464.t3 GND.t36 sky130_fd_pr__nfet_g5v0d10v5 ad=0.1218 pd=1.42 as=0.1218 ps=1.42 w=0.42 l=0.5
X81 a_2497_5464.t0 b[3].t3 a_6075_6728.t0 GND.t22 sky130_fd_pr__nfet_g5v0d10v5 ad=0.1218 pd=1.42 as=0.1218 ps=1.42 w=0.42 l=0.5
X82 a_3483_5464.t0 DEC[1].t8 rseg_1_v3_1.v28.t0 GND.t59 sky130_fd_pr__nfet_g5v0d10v5 ad=0.1218 pd=1.42 as=0.1218 ps=1.42 w=0.42 l=0.5
X83 a_6745_6728.t0 b[3].t4 a_3483_5464.t3 GND.t127 sky130_fd_pr__nfet_g5v0d10v5 ad=0.1218 pd=1.42 as=0.1218 ps=1.42 w=0.42 l=0.5
X84 rseg_1_v3_1.v21.t2 rseg_1_v3_1.v22.t1 GND.t1 sky130_fd_pr__res_xhigh_po_1p41 l=1.37
X85 rseg_1_v3_1.v37.t1 rseg_1_v3_1.v36.t1 GND.t5 sky130_fd_pr__res_xhigh_po_1p41 l=0.91
X86 rseg_1_v3_1.v41.t0 DEC[2].t10 a_2497_5464.t2 GND.t123 sky130_fd_pr__nfet_g5v0d10v5 ad=0.1218 pd=1.42 as=0.1218 ps=1.42 w=0.42 l=0.5
X87 a_1047_4028.t2 DEC[1].t9 rseg_1_v3_1.v20.t1 GND.t101 sky130_fd_pr__nfet_g5v0d10v5 ad=0.1218 pd=1.42 as=0.1218 ps=1.42 w=0.42 l=0.5
X88 GND.t71 GND.t72 GND.t0 sky130_fd_pr__res_xhigh_po_1p41 l=1.07
X89 rseg_1_v3_1.v32.t2 DEC[2].t11 a_n215_4028.t1 GND.t121 sky130_fd_pr__nfet_g5v0d10v5 ad=0.1218 pd=1.42 as=0.1218 ps=1.42 w=0.42 l=0.5
X90 a_8474_7809.t2 b[2].t2 a_6745_6728.t1 GND.t29 sky130_fd_pr__nfet_g5v0d10v5 ad=0.1218 pd=1.42 as=0.1218 ps=1.42 w=0.42 l=0.5
X91 rseg_1_v3_1.v16.t0 DEC[1].t10 a_n215_4028.t0 GND.t10 sky130_fd_pr__nfet_g5v0d10v5 ad=0.1218 pd=1.42 as=0.1218 ps=1.42 w=0.42 l=0.5
X92 rseg_1_v3_1.v31.t2 rseg_1_v3_1.v30.t1 GND.t0 sky130_fd_pr__res_xhigh_po_1p41 l=1.07
X93 rseg_1_v3_1.v49.t2 rseg_1_v3_1.v48.t2 GND.t4 sky130_fd_pr__res_xhigh_po_1p41 l=0.81
X94 rseg_1_v3_1.v35.t2 DEC[2].t12 a_613_4028.t2 GND.t84 sky130_fd_pr__nfet_g5v0d10v5 ad=0.1218 pd=1.42 as=0.1218 ps=1.42 w=0.42 l=0.5
X95 a_7894_7809.t0 b[1].t1 a_7314_7809.t0 GND.t7 sky130_fd_pr__nfet_g5v0d10v5 ad=0.1218 pd=1.42 as=0.1218 ps=1.42 w=0.42 l=0.5
X96 a_4035_5464.t0 DEC[3].t8 rseg_1_v3_1.v62.t1 GND.t90 sky130_fd_pr__nfet_g5v0d10v5 ad=0.1218 pd=1.42 as=0.1218 ps=1.42 w=0.42 l=0.5
X97 rseg_1_v3_1.v53.t0 rseg_1_v3_1.v52.t1 GND.t4 sky130_fd_pr__res_xhigh_po_1p41 l=0.71
X98 a_7010_7809.t1 b[0].t0 VOUT.t0 GND.t33 sky130_fd_pr__nfet_g5v0d10v5 ad=0.1218 pd=1.42 as=0.1218 ps=1.42 w=0.42 l=0.5
X99 rseg_1_v3_1.v11.t0 rseg_1_v3_1.v12.t1 GND.t53 sky130_fd_pr__res_xhigh_po_1p41 l=1.99
X100 a_8198_7809.t2 b[2].t3 a_7021_6728.t1 GND.t43 sky130_fd_pr__nfet_g5v0d10v5 ad=0.1218 pd=1.42 as=0.1218 ps=1.42 w=0.42 l=0.5
X101 rseg_1_v3_1.v45.t0 rseg_1_v3_1.v46.t0 GND.t47 sky130_fd_pr__res_xhigh_po_1p41 l=0.81
X102 rseg_1_v3_1.v24.t0 DEC[1].t11 a_2221_5464.t0 GND.t28 sky130_fd_pr__nfet_g5v0d10v5 ad=0.1218 pd=1.42 as=0.1218 ps=1.42 w=0.42 l=0.5
X103 a_2221_5464.t3 b[3].t5 a_5799_6728.t1 GND.t102 sky130_fd_pr__nfet_g5v0d10v5 ad=0.1218 pd=1.42 as=0.1218 ps=1.42 w=0.42 l=0.5
X104 a_3049_5464.t1 b[3].t6 a_6627_6728.t1 GND.t52 sky130_fd_pr__nfet_g5v0d10v5 ad=0.1218 pd=1.42 as=0.1218 ps=1.42 w=0.42 l=0.5
X105 GND.t39 GND.t40 GND.t6 sky130_fd_pr__res_xhigh_po_1p41 l=4.86
X106 GND.t37 GND.t38 GND.t0 sky130_fd_pr__res_xhigh_po_1p41 l=1.22
X107 rseg_1_v3_1.v19.t2 rseg_1_v3_1.v18.t2 GND.t1 sky130_fd_pr__res_xhigh_po_1p41 l=1.48
X108 GND.t74 GND.t75 GND.t5 sky130_fd_pr__res_xhigh_po_1p41 l=1.02
X109 rseg_1_v3_1.v40.t1 DEC[2].t13 a_2221_5464.t2 GND.t49 sky130_fd_pr__nfet_g5v0d10v5 ad=0.1218 pd=1.42 as=0.1218 ps=1.42 w=0.42 l=0.5
X110 GND.t95 GND.t96 GND.t20 sky130_fd_pr__res_xhigh_po_1p41 l=0.71
X111 rseg_1_v3_1.v33.t2 rseg_1_v3_1.v34.t2 GND.t5 sky130_fd_pr__res_xhigh_po_1p41 l=1.02
X112 rseg_1_v3_1.v45.t2 rseg_1_v3_1.v44.t1 GND.t47 sky130_fd_pr__res_xhigh_po_1p41 l=0.81
X113 rseg_1_v3_1.v9.t0 rseg_1_v3_1.v10.t0 GND.t53 sky130_fd_pr__res_xhigh_po_1p41 l=2.19
X114 rseg_1_v3_1.v31.t1 rseg_1_v3_1.v32.t0 GND.t0 sky130_fd_pr__res_xhigh_po_1p41 l=1.07
X115 rseg_1_v3_1.v5.t1 rseg_1_v3_1.v4.t1 GND.t6 sky130_fd_pr__res_xhigh_po_1p41 l=3.12
X116 rseg_1_v3_1.v19.t1 rseg_1_v3_1.v20.t2 GND.t1 sky130_fd_pr__res_xhigh_po_1p41 l=1.48
X117 rseg_1_v3_1.v37.t0 rseg_1_v3_1.v38.t0 GND.t5 sky130_fd_pr__res_xhigh_po_1p41 l=0.96
X118 GND.t2 GND.t3 GND.t1 sky130_fd_pr__res_xhigh_po_1p41 l=1.58
X119 a_2773_5464.t0 b[3].t7 a_6351_6728.t0 GND.t14 sky130_fd_pr__nfet_g5v0d10v5 ad=0.1218 pd=1.42 as=0.1218 ps=1.42 w=0.42 l=0.5
X120 rseg_1_v3_1.v5.t0 rseg_1_v3_1.v6.t1 GND.t6 sky130_fd_pr__res_xhigh_po_1p41 l=2.86
X121 rseg_1_v3_1.v25.t1 rseg_1_v3_1.v24.t2 GND.t0 sky130_fd_pr__res_xhigh_po_1p41 l=1.22
X122 rseg_1_v3_1.v17.t0 rseg_1_v3_1.v18.t0 GND.t1 sky130_fd_pr__res_xhigh_po_1p41 l=1.58
X123 a_1047_4028.t4 bb[3].t2 a_6745_6728.t2 GND.t78 sky130_fd_pr__nfet_g5v0d10v5 ad=0.1218 pd=1.42 as=0.1218 ps=1.42 w=0.42 l=0.5
X124 a_4035_5464.t4 DEC[0].t10 rseg_1_v3_1.v14.t1 GND.t110 sky130_fd_pr__nfet_g5v0d10v5 ad=0.1218 pd=1.42 as=0.1218 ps=1.42 w=0.42 l=0.5
X125 rseg_1_v3_1.v1.t1 V0.t0 GND.t6 sky130_fd_pr__res_xhigh_po_1p41 l=4.86
X126 a_1875_4028.t2 bb[3].t3 a_7573_6728.t2 GND.t42 sky130_fd_pr__nfet_g5v0d10v5 ad=0.1218 pd=1.42 as=0.1218 ps=1.42 w=0.42 l=0.5
X127 rseg_1_v3_1.v1.t2 DEC[0].t11 a_61_4028.t3 GND.t109 sky130_fd_pr__nfet_g5v0d10v5 ad=0.1218 pd=1.42 as=0.1218 ps=1.42 w=0.42 l=0.5
X128 GND.t87 GND.t88 GND.t4 sky130_fd_pr__res_xhigh_po_1p41 l=0.71
X129 rseg_1_v3_1.v53.t2 rseg_1_v3_1.v54.t1 GND.t4 sky130_fd_pr__res_xhigh_po_1p41 l=0.71
X130 rseg_1_v3_1.v29.t1 rseg_1_v3_1.v30.t2 GND.t0 sky130_fd_pr__res_xhigh_po_1p41 l=1.12
X131 rseg_1_v3_1.v3.t0 rseg_1_v3_1.v2.t1 GND.t6 sky130_fd_pr__res_xhigh_po_1p41 l=3.73
X132 a_4311_5464.t2 DEC[2].t14 rseg_1_v3_1.v47.t1 GND.t23 sky130_fd_pr__nfet_g5v0d10v5 ad=0.1218 pd=1.42 as=0.1218 ps=1.42 w=0.42 l=0.5
X133 rseg_1_v3_1.v57.t1 rseg_1_v3_1.v56.t1 GND.t20 sky130_fd_pr__res_xhigh_po_1p41 l=0.71
X134 rseg_1_v3_1.v33.t0 rseg_1_v3_1.v32.t1 GND.t5 sky130_fd_pr__res_xhigh_po_1p41 l=1.02
X135 rseg_1_v3_1.v17.t1 DEC[1].t12 a_61_4028.t1 GND.t44 sky130_fd_pr__nfet_g5v0d10v5 ad=0.1218 pd=1.42 as=0.1218 ps=1.42 w=0.42 l=0.5
X136 rseg_1_v3_1.v3.t2 DEC[0].t12 a_613_4028.t3 GND.t108 sky130_fd_pr__nfet_g5v0d10v5 ad=0.1218 pd=1.42 as=0.1218 ps=1.42 w=0.42 l=0.5
X137 a_4311_5464.t1 DEC[3].t9 rseg_1_v3_1.v63.t0 GND.t34 sky130_fd_pr__nfet_g5v0d10v5 ad=0.1218 pd=1.42 as=0.1218 ps=1.42 w=0.42 l=0.5
X138 rseg_1_v3_1.v39.t2 rseg_1_v3_1.v38.t2 GND.t5 sky130_fd_pr__res_xhigh_po_1p41 l=0.91
X139 GND.t93 GND.t94 GND.t20 sky130_fd_pr__res_xhigh_po_1p41 l=0.61
X140 rseg_1_v3_1.v25.t0 DEC[1].t13 a_2497_5464.t4 GND.t133 sky130_fd_pr__nfet_g5v0d10v5 ad=0.1218 pd=1.42 as=0.1218 ps=1.42 w=0.42 l=0.5
X141 rseg_1_v3_1.v41.t1 rseg_1_v3_1.v42.t1 GND.t47 sky130_fd_pr__res_xhigh_po_1p41 l=0.86
X142 rseg_1_v3_1.v29.t2 rseg_1_v3_1.v28.t2 GND.t0 sky130_fd_pr__res_xhigh_po_1p41 l=1.12
X143 rseg_1_v3_1.v35.t1 rseg_1_v3_1.v34.t0 GND.t5 sky130_fd_pr__res_xhigh_po_1p41 l=1.02
X144 rseg_1_v3_1.v63.t2 rseg_1_v3_1.v62.t2 GND.t20 sky130_fd_pr__res_xhigh_po_1p41 l=0.66
X145 a_3759_5464.t4 DEC[0].t13 rseg_1_v3_1.v13.t1 GND.t107 sky130_fd_pr__nfet_g5v0d10v5 ad=0.1218 pd=1.42 as=0.1218 ps=1.42 w=0.42 l=0.5
X146 a_6627_6728.t2 bb[3].t4 a_613_4028.t4 GND.t82 sky130_fd_pr__nfet_g5v0d10v5 ad=0.1218 pd=1.42 as=0.1218 ps=1.42 w=0.42 l=0.5
X147 rseg_1_v3_1.v23.t2 rseg_1_v3_1.v22.t2 GND.t1 sky130_fd_pr__res_xhigh_po_1p41 l=1.32
X148 rseg_1_v3_1.v17.t2 rseg_1_v3_1.v16.t2 GND.t1 sky130_fd_pr__res_xhigh_po_1p41 l=1.58
X149 a_1599_4028.t4 bb[3].t5 a_7297_6728.t2 GND.t124 sky130_fd_pr__nfet_g5v0d10v5 ad=0.1218 pd=1.42 as=0.1218 ps=1.42 w=0.42 l=0.5
X150 rseg_1_v3_1.v43.t2 rseg_1_v3_1.v44.t2 GND.t47 sky130_fd_pr__res_xhigh_po_1p41 l=0.86
X151 rseg_1_v3_1.v55.t2 rseg_1_v3_1.v56.t2 GND.t4 sky130_fd_pr__res_xhigh_po_1p41 l=0.71
X152 a_1323_4028.t2 DEC[3].t10 rseg_1_v3_1.v53.t1 GND.t69 sky130_fd_pr__nfet_g5v0d10v5 ad=0.1218 pd=1.42 as=0.1218 ps=1.42 w=0.42 l=0.5
X153 rseg_1_v3_1.v2.t2 DEC[0].t14 a_337_4028.t4 GND.t106 sky130_fd_pr__nfet_g5v0d10v5 ad=0.1218 pd=1.42 as=0.1218 ps=1.42 w=0.42 l=0.5
X154 rseg_1_v3_1.v58.t1 DEC[3].t11 a_2773_5464.t1 GND.t31 sky130_fd_pr__nfet_g5v0d10v5 ad=0.1218 pd=1.42 as=0.1218 ps=1.42 w=0.42 l=0.5
X155 a_3759_5464.t1 DEC[3].t12 rseg_1_v3_1.v61.t2 GND.t89 sky130_fd_pr__nfet_g5v0d10v5 ad=0.1218 pd=1.42 as=0.1218 ps=1.42 w=0.42 l=0.5
X156 rseg_1_v3_1.v63.t1 V64.t0 GND.t20 sky130_fd_pr__res_xhigh_po_1p41 l=0.61
X157 a_1875_4028.t3 DEC[1].t14 rseg_1_v3_1.v23.t1 GND.t73 sky130_fd_pr__nfet_g5v0d10v5 ad=0.1218 pd=1.42 as=0.1218 ps=1.42 w=0.42 l=0.5
X158 a_1323_4028.t1 bb[3].t6 a_7021_6728.t2 GND.t56 sky130_fd_pr__nfet_g5v0d10v5 ad=0.1218 pd=1.42 as=0.1218 ps=1.42 w=0.42 l=0.5
X159 a_4311_5464.t4 DEC[0].t15 rseg_1_v3_1.v15.t2 GND.t105 sky130_fd_pr__nfet_g5v0d10v5 ad=0.1218 pd=1.42 as=0.1218 ps=1.42 w=0.42 l=0.5
X160 a_6075_6728.t2 bb[3].t7 a_61_4028.t4 GND.t51 sky130_fd_pr__nfet_g5v0d10v5 ad=0.1218 pd=1.42 as=0.1218 ps=1.42 w=0.42 l=0.5
X161 a_3759_5464.t2 DEC[2].t15 rseg_1_v3_1.v45.t1 GND.t60 sky130_fd_pr__nfet_g5v0d10v5 ad=0.1218 pd=1.42 as=0.1218 ps=1.42 w=0.42 l=0.5
X162 rseg_1_v3_1.v7.t0 rseg_1_v3_1.v6.t0 GND.t6 sky130_fd_pr__res_xhigh_po_1p41 l=2.66
X163 GND.t67 GND.t68 GND.t53 sky130_fd_pr__res_xhigh_po_1p41 l=1.68
X164 a_1875_4028.t0 DEC[3].t13 rseg_1_v3_1.v55.t0 GND.t30 sky130_fd_pr__nfet_g5v0d10v5 ad=0.1218 pd=1.42 as=0.1218 ps=1.42 w=0.42 l=0.5
X165 a_4311_5464.t0 DEC[1].t15 rseg_1_v3_1.v31.t0 GND.t18 sky130_fd_pr__nfet_g5v0d10v5 ad=0.1218 pd=1.42 as=0.1218 ps=1.42 w=0.42 l=0.5
X166 GND.t65 GND.t66 GND.t5 sky130_fd_pr__res_xhigh_po_1p41 l=0.86
X167 rseg_1_v3_1.v13.t2 rseg_1_v3_1.v14.t2 GND.t53 sky130_fd_pr__res_xhigh_po_1p41 l=1.84
X168 rseg_1_v3_1.v57.t0 DEC[3].t14 a_2497_5464.t1 GND.t26 sky130_fd_pr__nfet_g5v0d10v5 ad=0.1218 pd=1.42 as=0.1218 ps=1.42 w=0.42 l=0.5
X169 rseg_1_v3_1.v43.t1 rseg_1_v3_1.v42.t2 GND.t47 sky130_fd_pr__res_xhigh_po_1p41 l=0.81
X170 rseg_1_v3_1.v61.t0 rseg_1_v3_1.v62.t0 GND.t20 sky130_fd_pr__res_xhigh_po_1p41 l=0.66
X171 a_8474_7809.t0 bb[1].t1 a_7314_7809.t1 GND.t21 sky130_fd_pr__nfet_g5v0d10v5 ad=0.1218 pd=1.42 as=0.1218 ps=1.42 w=0.42 l=0.5
X172 a_3483_5464.t4 DEC[3].t15 rseg_1_v3_1.v60.t2 GND.t131 sky130_fd_pr__nfet_g5v0d10v5 ad=0.1218 pd=1.42 as=0.1218 ps=1.42 w=0.42 l=0.5
X173 a_7618_7809.t1 bb[2].t3 a_6627_6728.t0 GND.t57 sky130_fd_pr__nfet_g5v0d10v5 ad=0.1218 pd=1.42 as=0.1218 ps=1.42 w=0.42 l=0.5
R0 DEC[0].n10 DEC[0].t6 213.218
R1 DEC[0].n7 DEC[0].t0 213.218
R2 DEC[0].n0 DEC[0].t15 213.218
R3 DEC[0].n10 DEC[0].t11 212.554
R4 DEC[0].n11 DEC[0].t14 212.554
R5 DEC[0].n12 DEC[0].t12 212.554
R6 DEC[0].n9 DEC[0].t9 212.554
R7 DEC[0].n8 DEC[0].t7 212.554
R8 DEC[0].n7 DEC[0].t3 212.554
R9 DEC[0].n6 DEC[0].t8 212.554
R10 DEC[0].n5 DEC[0].t4 212.554
R11 DEC[0].n4 DEC[0].t2 212.554
R12 DEC[0].n3 DEC[0].t1 212.554
R13 DEC[0].n2 DEC[0].t5 212.554
R14 DEC[0].n1 DEC[0].t13 212.554
R15 DEC[0].n0 DEC[0].t10 212.554
R16 DEC[0] DEC[0].n13 14.3922
R17 DEC[0].n12 DEC[0].n11 0.663962
R18 DEC[0].n11 DEC[0].n10 0.663962
R19 DEC[0].n8 DEC[0].n7 0.663962
R20 DEC[0].n9 DEC[0].n8 0.663962
R21 DEC[0].n1 DEC[0].n0 0.663962
R22 DEC[0].n2 DEC[0].n1 0.663962
R23 DEC[0].n3 DEC[0].n2 0.663962
R24 DEC[0].n4 DEC[0].n3 0.663962
R25 DEC[0].n5 DEC[0].n4 0.663962
R26 DEC[0].n6 DEC[0].n5 0.663962
R27 DEC[0].n13 DEC[0].n12 0.312199
R28 DEC[0].n13 DEC[0].n9 0.312199
R29 DEC[0] DEC[0].n6 0.254667
R30 rseg_1_v3_1.v7 rseg_1_v3_1.v7.t2 248.075
R31 rseg_1_v3_1.v7.n0 rseg_1_v3_1.v7.t1 10.5773
R32 rseg_1_v3_1.v7.n0 rseg_1_v3_1.v7.t0 10.5739
R33 rseg_1_v3_1.v7 rseg_1_v3_1.v7.n0 4.31612
R34 a_1875_4028.n0 a_1875_4028.t4 248.653
R35 a_1875_4028.t0 a_1875_4028.n2 246.668
R36 a_1875_4028.n1 a_1875_4028.t2 243.488
R37 a_1875_4028.n0 a_1875_4028.t3 240
R38 a_1875_4028.n2 a_1875_4028.t1 240
R39 a_1875_4028.n1 a_1875_4028.n0 5.15258
R40 a_1875_4028.n2 a_1875_4028.n1 1.86925
R41 GND.n117 GND.n71 28676.6
R42 GND.n156 GND.n117 28676.6
R43 GND.n160 GND.n71 28673.3
R44 GND.n160 GND.n156 28673.3
R45 GND.n102 GND.n97 7416.07
R46 GND.n102 GND.n98 7416.07
R47 GND.n98 GND.n92 7416.07
R48 GND.n97 GND.n92 7416.07
R49 GND.n206 GND.n4 4458.86
R50 GND.n206 GND.n5 4458.86
R51 GND.n208 GND.n5 4458.86
R52 GND.n208 GND.n4 4458.86
R53 GND.n176 GND.n35 4458.86
R54 GND.n178 GND.n35 4458.86
R55 GND.n178 GND.n34 4458.86
R56 GND.n176 GND.n34 4458.86
R57 GND.n58 GND.n26 4458.86
R58 GND.n58 GND.n27 4458.86
R59 GND.n185 GND.n27 4458.86
R60 GND.n185 GND.n26 4458.86
R61 GND.n107 GND.n88 4458.86
R62 GND.n90 GND.n88 4458.86
R63 GND.n90 GND.n86 4458.86
R64 GND.n107 GND.n86 4458.86
R65 GND.n114 GND.n77 4458.86
R66 GND.n77 GND.n72 4458.86
R67 GND.n73 GND.n72 4458.86
R68 GND.n114 GND.n73 4458.86
R69 GND.n158 GND.n36 4458.86
R70 GND.n158 GND.n37 4458.86
R71 GND.n167 GND.n37 4458.86
R72 GND.n167 GND.n36 4458.86
R73 GND.n64 GND.n43 4458.86
R74 GND.n64 GND.n44 4458.86
R75 GND.n56 GND.n44 4458.86
R76 GND.n56 GND.n43 4458.86
R77 GND.n188 GND.n24 4458.86
R78 GND.n25 GND.n24 4458.86
R79 GND.n25 GND.n23 4458.86
R80 GND.n188 GND.n23 4458.86
R81 GND.n195 GND.n16 4458.86
R82 GND.n16 GND.n14 4458.86
R83 GND.n15 GND.n14 4458.86
R84 GND.n195 GND.n15 4458.86
R85 GND.n198 GND.n11 4458.86
R86 GND.n198 GND.n12 4458.86
R87 GND.n13 GND.n12 4458.86
R88 GND.n13 GND.n11 4458.86
R89 GND.n202 GND.n201 982.966
R90 GND.n101 GND.n99 852.33
R91 GND.n101 GND.n100 852.33
R92 GND.n91 GND.n9 781.929
R93 GND.n91 GND.n7 781.929
R94 GND.n165 GND.n66 669.365
R95 GND.n41 GND.n40 646.4
R96 GND GND.n0 583.907
R97 GND.n175 GND.n174 514.26
R98 GND.n113 GND.n78 514.26
R99 GND.n81 GND.n78 514.26
R100 GND.n68 GND.n67 514.26
R101 GND.n49 GND.n48 514.26
R102 GND.n199 GND.n10 514.26
R103 GND.n205 GND.n204 514.26
R104 GND.n161 GND.n70 511.591
R105 GND.n135 GND.n134 461.243
R106 GND.n136 GND.n135 459.111
R107 GND.n108 GND.n85 443.86
R108 GND.n171 GND.n170 443.86
R109 GND.n175 GND.n173 443.86
R110 GND.n82 GND.n81 443.86
R111 GND.n89 GND.n18 443.86
R112 GND.n89 GND.n21 443.86
R113 GND.n183 GND.n182 443.86
R114 GND.n182 GND.n181 443.86
R115 GND.n180 GND.n179 443.86
R116 GND.n179 GND.n33 443.86
R117 GND.n165 GND.n164 443.86
R118 GND.n50 GND.n49 443.86
R119 GND.n52 GND.n51 443.86
R120 GND.n53 GND.n52 443.86
R121 GND.n54 GND.n39 443.86
R122 GND.n67 GND.n38 443.86
R123 GND.n80 GND.n79 443.86
R124 GND.n79 GND.n0 443.86
R125 GND.n210 GND.n209 443.86
R126 GND.n209 GND.n3 443.86
R127 GND.n203 GND.n202 431.812
R128 GND.n181 GND.n180 428.8
R129 GND.n66 GND.n39 427.671
R130 GND.n170 GND.n2 414.872
R131 GND.n173 GND.n172 399.812
R132 GND GND.n210 399.06
R133 GND.n54 GND.n53 380.988
R134 GND.n46 GND.n45 380.988
R135 GND.n162 GND.n161 361.601
R136 GND.n82 GND.n17 350.872
R137 GND.n193 GND.n18 350.872
R138 GND.n190 GND.n21 350.872
R139 GND.n183 GND.n22 350.872
R140 GND.n181 GND.n29 350.872
R141 GND.n180 GND.n32 350.872
R142 GND.n40 GND.n33 350.872
R143 GND.n48 GND.n17 345.976
R144 GND.n85 GND.n28 338.825
R145 GND.n183 GND.n21 338.825
R146 GND.n112 GND.n80 332.8
R147 GND.n109 GND.n0 332.8
R148 GND.n210 GND.n2 332.8
R149 GND.n172 GND.n3 332.8
R150 GND.n51 GND.n50 317.365
R151 GND.n192 GND.n191 317.365
R152 GND.n112 GND.n111 313.601
R153 GND.n193 GND.n192 310.589
R154 GND.n111 GND.n110 301.553
R155 GND.n82 GND.n18 301.553
R156 GND.n164 GND.n163 295.906
R157 GND.n200 GND.n199 294.776
R158 GND.n46 GND.n22 289.13
R159 GND.n110 GND.n109 272.565
R160 GND.n191 GND.n190 259.765
R161 GND.n73 GND.t34 257.123
R162 GND.t114 GND.n158 257.123
R163 GND.n41 GND.n32 241.319
R164 GND.n200 GND.n9 240.565
R165 GND.n203 GND.n7 240.565
R166 GND.n118 GND.n69 235.98
R167 GND.n42 GND.n29 226.26
R168 GND.n45 GND.n29 217.601
R169 GND.n146 GND.n145 207.393
R170 GND.n42 GND.n32 202.542
R171 GND.n163 GND.n68 195.766
R172 GND.n190 GND.n189 184.095
R173 GND.n150 GND.n149 172.619
R174 GND.n142 GND.n141 171.554
R175 GND.n119 GND.n118 171.339
R176 GND.n129 GND.n128 171.339
R177 GND.n133 GND.n132 171.339
R178 GND.n138 GND.n137 171.339
R179 GND.n109 GND.n108 171.294
R180 GND.n124 GND.n123 170.274
R181 GND.n194 GND.n17 168.282
R182 GND.n189 GND.n22 154.73
R183 GND.n144 GND.n143 151.714
R184 GND.n127 GND.n126 151.5
R185 GND.n131 GND.n130 151.5
R186 GND.n140 GND.n139 150.434
R187 GND.n122 GND.n121 149.367
R188 GND.n201 GND.n200 149.083
R189 GND.n48 GND.n15 146.25
R190 GND.n75 GND.n15 146.25
R191 GND.n19 GND.n16 146.25
R192 GND.n94 GND.n16 146.25
R193 GND.n23 GND.n20 146.25
R194 GND.n105 GND.n23 146.25
R195 GND.n47 GND.n24 146.25
R196 GND.n153 GND.n24 146.25
R197 GND.n56 GND.n55 146.25
R198 GND.n57 GND.n56 146.25
R199 GND.n65 GND.n64 146.25
R200 GND.n64 GND.n63 146.25
R201 GND.n167 GND.n166 146.25
R202 GND.n168 GND.n167 146.25
R203 GND.n158 GND.n68 146.25
R204 GND.n78 GND.n73 146.25
R205 GND.n83 GND.n77 146.25
R206 GND.n77 GND.n76 146.25
R207 GND.n86 GND.n84 146.25
R208 GND.n93 GND.n86 146.25
R209 GND.n88 GND.n87 146.25
R210 GND.n104 GND.n88 146.25
R211 GND.n185 GND.n184 146.25
R212 GND.n186 GND.n185 146.25
R213 GND.n58 GND.n30 146.25
R214 GND.n59 GND.n58 146.25
R215 GND.n34 GND.n31 146.25
R216 GND.n62 GND.n34 146.25
R217 GND.n174 GND.n35 146.25
R218 GND.n169 GND.n35 146.25
R219 GND.n4 GND.n1 146.25
R220 GND.n152 GND.n4 146.25
R221 GND.n99 GND.n97 146.25
R222 GND.n97 GND.n96 146.25
R223 GND.n100 GND.n98 146.25
R224 GND.n98 GND.n6 146.25
R225 GND.n12 GND.n8 146.25
R226 GND.n95 GND.n12 146.25
R227 GND.n11 GND.n10 146.25
R228 GND.n74 GND.n11 146.25
R229 GND.n204 GND.n5 146.25
R230 GND.n60 GND.n5 146.25
R231 GND.t90 GND.t89 143.666
R232 GND.t89 GND.t131 143.666
R233 GND.t103 GND.t35 143.666
R234 GND.t119 GND.t118 143.666
R235 GND.t118 GND.t116 143.666
R236 GND.t116 GND.t112 143.666
R237 GND.t117 GND.t120 143.666
R238 GND.t111 GND.t113 143.666
R239 GND.t106 GND.t108 143.666
R240 GND.t109 GND.t106 143.666
R241 GND.n148 GND.n147 142.754
R242 GND.t1 GND.t19 141.583
R243 GND.n145 GND.n70 135.286
R244 GND.t107 GND.t53 133.775
R245 GND.n194 GND.n193 133.272
R246 GND.n113 GND.n112 130.26
R247 GND.n147 GND.n146 128.887
R248 GND.t29 GND.t130 116.599
R249 GND.n116 GND.t90 115.037
R250 GND.t6 GND.t117 114.516
R251 GND.n94 GND.t77 112.433
R252 GND.t10 GND.t105 111.913
R253 GND.t112 GND.n169 110.873
R254 GND.n168 GND.t120 110.873
R255 GND.n74 GND.t8 108.269
R256 GND.t16 GND.t50 108.269
R257 GND.t79 GND.t82 103.585
R258 GND.t57 GND.t123 102.023
R259 GND.t125 GND.t49 102.023
R260 GND.n120 GND.n119 100.299
R261 GND.n162 GND.n69 99.6436
R262 GND.n123 GND.n122 96.0333
R263 GND.t126 GND.n186 92.1335
R264 GND.t69 GND.t127 91.0924
R265 GND.t14 GND.t91 91.0924
R266 GND.n149 GND.n148 84.94
R267 GND.n163 GND.n162 80.0005
R268 GND.n121 GND.n66 80.0005
R269 GND.t23 GND.t48 79.6409
R270 GND.t92 GND.t62 79.6409
R271 GND.t28 GND.t73 79.1203
R272 GND.t44 GND.n62 79.1203
R273 GND.n63 GND.t110 79.1203
R274 GND.n159 GND.t114 78.0793
R275 GND.t80 GND.t26 75.4767
R276 GND.t36 GND.t70 75.4767
R277 GND.n66 GND.n65 74.0272
R278 GND.t17 GND.t124 73.3946
R279 GND.n128 GND.n127 72.14
R280 GND.n115 GND.t8 71.833
R281 GND.n106 GND.t81 71.833
R282 GND.n187 GND.t84 71.833
R283 GND.n61 GND.t101 71.833
R284 GND.t35 GND.n61 71.833
R285 GND.n177 GND.t115 71.833
R286 GND.n177 GND.t119 71.833
R287 GND.n157 GND.t111 71.833
R288 GND.t108 GND.n157 71.833
R289 GND.n151 GND.n150 70.499
R290 GND.n100 GND.n7 70.4005
R291 GND.n99 GND.n9 70.4005
R292 GND.n202 GND.n1 70.4005
R293 GND.n210 GND.n1 70.4005
R294 GND.n174 GND.n33 70.4005
R295 GND.n171 GND.n30 70.4005
R296 GND.n181 GND.n30 70.4005
R297 GND.n184 GND.n28 70.4005
R298 GND.n184 GND.n183 70.4005
R299 GND.n87 GND.n85 70.4005
R300 GND.n87 GND.n21 70.4005
R301 GND.n110 GND.n84 70.4005
R302 GND.n84 GND.n18 70.4005
R303 GND.n111 GND.n83 70.4005
R304 GND.n83 GND.n82 70.4005
R305 GND.n173 GND.n31 70.4005
R306 GND.n180 GND.n31 70.4005
R307 GND.n166 GND.n38 70.4005
R308 GND.n166 GND.n165 70.4005
R309 GND.n192 GND.n19 70.4005
R310 GND.n50 GND.n19 70.4005
R311 GND.n191 GND.n20 70.4005
R312 GND.n51 GND.n20 70.4005
R313 GND.n47 GND.n46 70.4005
R314 GND.n53 GND.n47 70.4005
R315 GND.n55 GND.n45 70.4005
R316 GND.n55 GND.n54 70.4005
R317 GND.n65 GND.n41 70.4005
R318 GND.n201 GND.n8 70.4005
R319 GND.n8 GND.n0 70.4005
R320 GND.n80 GND.n10 70.4005
R321 GND.n204 GND.n3 70.4005
R322 GND.t13 GND.n104 69.2304
R323 GND.n141 GND.n140 67.4467
R324 GND.n159 GND.t109 65.5867
R325 GND.n125 GND.n124 65.3297
R326 GND.n143 GND.n142 65.3133
R327 GND.n62 GND.t103 64.5456
R328 GND.n63 GND.t107 64.5456
R329 GND.n132 GND.n131 63.18
R330 GND.n155 GND.t33 62.9841
R331 GND.n130 GND.n129 61.0467
R332 GND.n137 GND.n136 58.9133
R333 GND.n139 GND.n138 58.9133
R334 GND.t12 GND.t42 58.8199
R335 GND.t9 GND.n75 58.2993
R336 GND.t132 GND.n95 58.2993
R337 GND.n57 GND.t25 57.2583
R338 GND.t19 GND.n60 57.2583
R339 GND.n134 GND.n133 54.6467
R340 GND.t30 GND.t9 52.5736
R341 GND.t63 GND.t80 52.5736
R342 GND.t127 GND.t27 52.5736
R343 GND.t91 GND.t52 52.5736
R344 GND.t84 GND.t126 49.9709
R345 GND.n96 GND.t22 48.4093
R346 GND.t133 GND.n57 46.3272
R347 GND.n59 GND.t32 46.3272
R348 GND.t131 GND.t20 45.8067
R349 GND.t18 GND.t7 44.7657
R350 GND.t76 GND.t12 44.7657
R351 GND.n169 GND.n168 40.6015
R352 GND.t82 GND.t104 40.0809