* PEX produced on Fri Jun 27 22:11:25 WIB 2025 using ./iic-pex.sh with m=3 and s=1
* NGSPICE file created from top_rseg_n_dcell.ext - technology: sky130A

.subckt top_rseg_n_dcell DIN0 DIN1 DIN2 DIN3 DIN4 DIN5 DIN6 DIN7 DIN8 DIN9 ROUT VS1
+ VL2 VH2 VL3 VH3 VS4 SH[1] SH[2] SH[3] SH[4] VDD VDDH GND
X0 GND.t425 GND.t426 GND.t279 sky130_fd_pr__res_xhigh_po_1p41 l=6.35
X1 a_42781_10934.t0 top_dcell_routing_0.top_dcell_bias_0/top_digital_cell_0.VBNLV.t6 top_dcell_routing_0.top_dcell_bias_0/top_digital_cell_0.lvsf_7bit_0/lvsf_buff_1/lvsf_0.OUTP.t0 GND.t257 sky130_fd_pr__nfet_g5v0d10v5 ad=0.29 pd=2.58 as=0.29 ps=2.58 w=1 l=1
X2 top_segment_1_0.rseg_1_v3_1.v19.t0 top_segment_2_0.DEC2[1].t2 a_26719_5238.t0 GND.t46 sky130_fd_pr__nfet_g5v0d10v5 ad=0.1218 pd=1.42 as=0.1218 ps=1.42 w=0.42 l=0.5
X3 top_dcell_routing_0.top_dcell_bias_0/top_digital_cell_0.decoder_3_0/decoder_2to4_2.b[0].t3 top_dcell_routing_0.top_dcell_bias_0/top_digital_cell_0.dcell_lv_0.logic_shift_seg2_0.x7.Y.t3 VDD.t168 VDD.t43 sky130_fd_pr__pfet_01v8_hvt ad=0.135 pd=1.27 as=0.26 ps=2.52 w=1 l=0.15
X4 a_13061_17684.t0 top_segment_3_0.b[5].t2 a_15695_17684.t1 VDDH.t55 sky130_fd_pr__pfet_g5v0d10v5 ad=0.1218 pd=1.42 as=0.1218 ps=1.42 w=0.42 l=0.5
X5 a_18769_7938.t2 top_segment_4_1.bb3.t2 a_15714_6674.t4 VDDH.t99 sky130_fd_pr__pfet_g5v0d10v5 ad=0.1218 pd=1.42 as=0.1218 ps=1.42 w=0.42 l=0.5
X6 GND.t587 GND.t588 GND.t72 sky130_fd_pr__res_xhigh_po_1p41 l=0.86
X7 top_segment_2_0.rseg_2_v3_0.v42.t2 top_segment_2_0.rseg_2_v3_0.v41.t2 GND.t181 sky130_fd_pr__res_xhigh_po_1p41 l=5.32
X8 a_41787_17118.t1 top_segment_2_0.DEC2[2].t2 a_41529_17118.t1 VDDH.t7 sky130_fd_pr__pfet_g5v0d10v5 ad=0.1218 pd=1.13 as=0.1218 ps=1.13 w=0.84 l=1
X9 a_41714_2150.t0 top_dcell_routing_0.top_dcell_bias_0/top_digital_cell_0.dcell_lv_0.b[9].t4 GND.t530 GND.t529 sky130_fd_pr__nfet_01v8 ad=0.08775 pd=0.92 as=0.169 ps=1.82 w=0.65 l=0.15
X10 top_segment_2_0.rseg_2_v3_0.v4.t0 top_segment_2_0.rseg_2_v3_0.v5.t1 GND.t45 sky130_fd_pr__res_xhigh_po_1p41 l=7.88
X11 top_segment_1_0.rseg_1_v3_1.v9.t1 top_segment_2_0.DEC2[0].t2 a_28603_6674.t4 GND.t352 sky130_fd_pr__nfet_g5v0d10v5 ad=0.1218 pd=1.42 as=0.1218 ps=1.42 w=0.42 l=0.5
X12 top_segment_4_1.rseg_4_routing_0/rseg_4_v3_0.v53.t0 top_segment_4_1.rseg_4_routing_0/rseg_4_v3_0.v54.t0 GND.t4 sky130_fd_pr__res_xhigh_po_1p41 l=1.48
X13 top_segment_2_0.rseg_2_v3_0.v10.t2 top_segment_2_0.DEC0[0].t2 a_19094_19162.t2 GND.t250 sky130_fd_pr__nfet_g5v0d10v5 ad=0.1218 pd=1.42 as=0.1218 ps=1.42 w=0.42 l=0.5
X14 a_42781_13270.t1 top_dcell_routing_0.top_dcell_bias_0/top_digital_cell_0.lvsf_7bit_0/lvsf_buff_2/lvsf_0.IN.t4 GND.t590 GND.t589 sky130_fd_pr__nfet_01v8 ad=0.87 pd=6.58 as=0.435 ps=3.29 w=3 l=0.15
X15 a_42245_11724.t0 top_dcell_routing_0.top_dcell_bias_0/top_digital_cell_0.lvsf_7bit_0/lvsf_buff_3/lvsf_0.OUTP.t2 a_42271_12320.t0 VDDH.t2 sky130_fd_pr__pfet_g5v0d10v5 ad=0.29 pd=2.58 as=0.145 ps=1.29 w=1 l=0.8
X16 a_42781_9310.t1 top_dcell_routing_0.top_dcell_bias_0/top_digital_cell_0.seg_selector_lvsf_0/lvsf_inv_3/lvsf_0.IN.t3 GND.t502 GND.t501 sky130_fd_pr__nfet_01v8 ad=0.87 pd=6.58 as=0.435 ps=3.29 w=3 l=0.15
X17 top_segment_1_0.rseg_1_v3_1.v56.t1 top_segment_2_0.DEC2[3].t2 a_28327_6674.t4 GND.t608 sky130_fd_pr__nfet_g5v0d10v5 ad=0.1218 pd=1.42 as=0.1218 ps=1.42 w=0.42 l=0.5
X18 VDDH.t23 top_dcell_routing_0.top_dcell_bias_0/top_bias_lvsf_dec_0.cm2_pcell_0.cm2_pcell2_0.S0.t6 top_dcell_routing_0.top_dcell_bias_0/top_bias_lvsf_dec_0.cm2_pcell_0.cm2_pcell2_0.S3.t3 VDDH.t21 sky130_fd_pr__pfet_g5v0d10v5 ad=0.522 pd=4.18 as=0.522 ps=4.18 w=1.8 l=1
X19 a_32181_7938.t2 top_segment_4_1.bb3.t3 a_26167_5238.t2 GND.t224 sky130_fd_pr__nfet_g5v0d10v5 ad=0.1218 pd=1.42 as=0.1218 ps=1.42 w=0.42 l=0.5
X20 top_segment_1_0.rseg_1_v3_1.v39.t1 top_segment_1_0.rseg_1_v3_1.v38.t0 GND.t72 sky130_fd_pr__res_xhigh_po_1p41 l=0.91
X21 a_43570_17828.t1 top_dcell_routing_0.top_dcell_bias_0/top_digital_cell_0.lvsf_7bit_0/lvsf_buff_5/lvsf_0.INB.t4 GND.t528 GND.t527 sky130_fd_pr__nfet_01v8 ad=0.08775 pd=0.92 as=0.169 ps=1.82 w=0.65 l=0.15
X22 VDD.t201 top_dcell_routing_0.top_dcell_bias_0/top_digital_cell_0.decoder_3_0/decoder_2to4_1.bb[1].t4 top_dcell_routing_0.top_dcell_bias_0/top_digital_cell_0.dcell_lv_0.seg_selector_logic_0.x3/x3.B.t3 VDD.t200 sky130_fd_pr__pfet_01v8_hvt ad=0.3 pd=2.6 as=0.165 ps=1.33 w=1 l=0.15
X23 top_dcell_routing_0.top_dcell_bias_0/top_digital_cell_0.seg_selector_lvsf_0/lvsf_inv_2/lvsf_0.INB.t1 top_dcell_routing_0.top_dcell_bias_0/top_digital_cell_0.seg_selector_lvsf_0/lvsf_inv_2/lvsf_0.IN.t3 GND.t173 GND.t172 sky130_fd_pr__nfet_01v8 ad=0.169 pd=1.82 as=0.169 ps=1.82 w=0.65 l=0.15
X24 a_15143_17684.t1 top_segment_3_0.bb[6].t2 top_segment_3_0.rseg_3_v3_0.v2.t0 VDDH.t210 sky130_fd_pr__pfet_g5v0d10v5 ad=0.1218 pd=1.42 as=0.1218 ps=1.42 w=0.42 l=0.5
X25 top_segment_4_1.rseg_4_routing_0/rseg_4_v3_0.v51.t0 top_segment_4_1.rseg_4_routing_0/rseg_4_v3_0.v50.t0 GND.t4 sky130_fd_pr__res_xhigh_po_1p41 l=1.37
X26 VDD.t5 top_dcell_routing_0.top_dcell_bias_0/top_digital_cell_0.dcell_lv_0.b[8].t4 top_dcell_routing_0.top_dcell_bias_0/top_digital_cell_0.dcell_lv_0.seg_selector_logic_0.x3/x3.B.t1 VDD.t4 sky130_fd_pr__pfet_01v8_hvt ad=0.135 pd=1.27 as=0.135 ps=1.27 w=1 l=0.15
X27 top_dcell_routing_0.top_dcell_bias_0/top_digital_cell_0.decoder_3_0/decoder_2to4_1.dec_logic_0/sky130_fd_sc_hd__nand2_1_1.Y.t2 top_dcell_routing_0.top_dcell_bias_0/top_digital_cell_0.decoder_3_0/decoder_2to4_1.bb[1].t5 VDD.t20 VDD.t19 sky130_fd_pr__pfet_01v8_hvt ad=0.135 pd=1.27 as=0.26 ps=2.52 w=1 l=0.15
X28 top_segment_3_0.bb[4].t0 top_dcell_routing_0.top_dcell_bias_0/top_digital_cell_0.lvsf_7bit_0/lvsf_buff_5/lvsf_0.OUTP.t2 GND.t459 GND.t458 sky130_fd_pr__nfet_g5v0d10v5 ad=0.21375 pd=2.07 as=0.21375 ps=2.07 w=0.75 l=0.5
X29 a_34580_9019.t2 top_segment_4_1.bb2.t2 a_31905_7938.t1 GND.t226 sky130_fd_pr__nfet_g5v0d10v5 ad=0.1218 pd=1.42 as=0.1218 ps=1.42 w=0.42 l=0.5
X30 GND.t368 GND.t369 GND.t122 sky130_fd_pr__res_xhigh_po_1p41 l=4.71
X31 top_segment_1_0.rseg_1_v3_1.v47.t0 top_segment_1_0.rseg_1_v3_1.v46.t0 GND.t56 sky130_fd_pr__res_xhigh_po_1p41 l=0.81
X32 GND.t461 GND.t462 GND.t21 sky130_fd_pr__res_xhigh_po_1p41 l=6.35
X33 a_13588_5238.t2 top_segment_4_1.DEC2.t2 top_segment_4_1.rseg_4_routing_0/rseg_4_v3_0.v36.t0 VDDH.t134 sky130_fd_pr__pfet_g5v0d10v5 ad=0.1218 pd=1.42 as=0.1218 ps=1.42 w=0.42 l=0.5
X34 a_34580_9019.t1 top_segment_4_1.b2.t2 a_32851_7938.t1 GND.t286 sky130_fd_pr__nfet_g5v0d10v5 ad=0.1218 pd=1.42 as=0.1218 ps=1.42 w=0.42 l=0.5
X35 a_21596_17121.t5 top_segment_2_0.DEC2[2].t3 VL2.t1 GND.t96 sky130_fd_pr__nfet_g5v0d10v5 ad=0.1218 pd=1.42 as=0.1218 ps=1.42 w=0.42 l=0.5
X36 a_42271_15290.t1 top_dcell_routing_0.top_dcell_bias_0/top_digital_cell_0.VBPLV.t6 VDDH.t271 VDDH.t270 sky130_fd_pr__pfet_g5v0d10v5 ad=0.145 pd=1.29 as=0.145 ps=1.29 w=1 l=0.8
X37 a_35435_18538.t1 top_dcell_routing_0.top_dcell_bias_0/top_bias_lvsf_dec_0.cm2_pcell_0.D1.t6 top_dcell_routing_0.top_dcell_bias_0/top_digital_cell_0.VBPLV.t4 GND.t118 sky130_fd_pr__nfet_g5v0d10v5 ad=0.174 pd=1.78 as=0.174 ps=1.78 w=0.6 l=1
X38 VDD.t118 top_dcell_routing_0.top_dcell_bias_0/top_digital_cell_0.lvsf_7bit_0/lvsf_buff_7/lvsf_0.IN.t4 top_dcell_routing_0.top_dcell_bias_0/top_digital_cell_0.decoder_3_0/decoder_2to4_1.dec_logic_0/sky130_fd_sc_hd__nand2_1_1.Y.t0 VDD.t117 sky130_fd_pr__pfet_01v8_hvt ad=0.26 pd=2.52 as=0.135 ps=1.27 w=1 l=0.15
X39 a_19479_9019.t2 top_segment_4_1.bb2.t3 a_18217_7938.t1 VDDH.t111 sky130_fd_pr__pfet_g5v0d10v5 ad=0.1218 pd=1.42 as=0.1218 ps=1.42 w=0.42 l=0.5
X40 top_segment_1_0.rseg_1_v3_1.v49.t2 top_segment_1_0.rseg_1_v3_1.v50.t2 GND.t3 sky130_fd_pr__res_xhigh_po_1p41 l=0.76
X41 top_dcell_routing_0.top_dcell_bias_0/top_bias_lvsf_dec_0.cm2_pcell_0.cm2_pcell2_0.S1.t3 top_dcell_routing_0.top_dcell_bias_0/top_bias_lvsf_dec_0.cm2_pcell_0.cm2_pcell2_0.S0.t7 VDDH.t18 VDDH.t12 sky130_fd_pr__pfet_g5v0d10v5 ad=0.522 pd=4.18 as=0.522 ps=4.18 w=1.8 l=1
X42 VH3.t0 top_segment_4_1.b3.t2 a_16555_17684.t1 VDDH.t176 sky130_fd_pr__pfet_g5v0d10v5 ad=0.1218 pd=1.42 as=0.1218 ps=1.42 w=0.42 l=0.5
X43 GND.t519 top_dcell_routing_0.top_dcell_bias_0/top_digital_cell_0.decoder_3_0/dec_2_0/decoder_2to4_0.dec_logic_0/sky130_fd_sc_hd__nand2_1_0.Y.t3 a_42609_17081.t0 GND.t518 sky130_fd_pr__nfet_01v8 ad=0.29 pd=2.29 as=0.58 ps=4.58 w=2 l=0.15
X44 top_segment_2_0.rseg_2_v3_0.v16.t1 top_segment_2_0.DEC0[0].t3 a_19922_19162.t2 GND.t251 sky130_fd_pr__nfet_g5v0d10v5 ad=0.1218 pd=1.42 as=0.1218 ps=1.42 w=0.42 l=0.5
X45 top_dcell_routing_0.top_dcell_bias_0/top_digital_cell_0.VBPDEC.t3 top_dcell_routing_0.top_dcell_bias_0/top_digital_cell_0.VBPDEC.t2 a_35957_18086.t1 GND.t429 sky130_fd_pr__nfet_g5v0d10v5 ad=0.174 pd=1.78 as=0.174 ps=1.78 w=0.6 l=1
X46 a_33724_9019.t0 top_segment_4_1.b2.t3 a_33679_7938.t0 GND.t287 sky130_fd_pr__nfet_g5v0d10v5 ad=0.1218 pd=1.42 as=0.1218 ps=1.42 w=0.42 l=0.5
X47 top_segment_1_0.rseg_1_v3_1.v27.t0 top_segment_2_0.DEC2[1].t3 a_29155_6674.t0 GND.t47 sky130_fd_pr__nfet_g5v0d10v5 ad=0.1218 pd=1.42 as=0.1218 ps=1.42 w=0.42 l=0.5
X48 top_dcell_routing_0.top_dcell_bias_0/top_digital_cell_0.decoder_3_0/decoder_2to4_2.b[0].t0 top_dcell_routing_0.top_dcell_bias_0/top_digital_cell_0.dcell_lv_0.logic_shift_seg2_0.x8.Y.t4 VDD.t73 VDD.t43 sky130_fd_pr__pfet_01v8_hvt ad=0.26 pd=2.52 as=0.165 ps=1.33 w=1 l=0.15
X49 GND.t189 GND.t190 GND.t3 sky130_fd_pr__res_xhigh_po_1p41 l=0.81
X50 top_segment_4_1.rseg_4_routing_0/rseg_4_v3_0.v27.t0 top_segment_4_1.rseg_4_routing_0/rseg_4_v3_0.v26.t0 GND.t48 sky130_fd_pr__res_xhigh_po_1p41 l=0.76
X51 a_42271_14854.t1 a_42245_14694.t2 top_dcell_routing_0.top_dcell_bias_0/top_digital_cell_0.lvsf_7bit_0/lvsf_buff_4/lvsf_0.OUTP.t1 VDDH.t274 sky130_fd_pr__pfet_g5v0d10v5 ad=0.145 pd=1.29 as=0.29 ps=2.58 w=1 l=0.8
X52 a_18623_9019.t2 top_segment_4_1.bb2.t4 a_19045_7938.t1 VDDH.t112 sky130_fd_pr__pfet_g5v0d10v5 ad=0.1218 pd=1.42 as=0.1218 ps=1.42 w=0.42 l=0.5
X53 VDD.t180 top_dcell_routing_0.top_dcell_bias_0/top_digital_cell_0.decoder_3_0/decoder_2to4_2.b[0].t4 top_dcell_routing_0.top_dcell_bias_0/top_digital_cell_0.decoder_3_0/decoder_2to4_2.dec_logic_0/sky130_fd_sc_hd__nand2_1_1.Y.t1 VDD.t179 sky130_fd_pr__pfet_01v8_hvt ad=0.26 pd=2.52 as=0.135 ps=1.27 w=1 l=0.15
X54 GND.t353 top_segment_2_0.DEC2[0].t3 top_segment_4_1.DEC0.t0 GND.t339 sky130_fd_pr__nfet_g5v0d10v5 ad=0.21375 pd=2.07 as=0.21375 ps=2.07 w=0.75 l=0.5
X55 a_41529_17118.t0 top_segment_2_0.DEC2[1].t4 a_41271_17118.t0 VDDH.t8 sky130_fd_pr__pfet_g5v0d10v5 ad=0.1218 pd=1.13 as=0.1218 ps=1.13 w=0.84 l=1
X56 a_34000_9019.t1 top_segment_4_1.b1.t2 a_33420_9019.t2 GND.t403 sky130_fd_pr__nfet_g5v0d10v5 ad=0.1218 pd=1.42 as=0.1218 ps=1.42 w=0.42 l=0.5
X57 top_segment_1_0.rseg_1_v3_1.v9.t2 top_segment_1_0.rseg_1_v3_1.v10.t2 GND.t40 sky130_fd_pr__res_xhigh_po_1p41 l=2.19
X58 GND.t145 GND.t146 GND.t86 sky130_fd_pr__res_xhigh_po_1p41 l=4.86
X59 a_14416_5238.t3 top_segment_4_1.DEC1.t2 top_segment_4_1.rseg_4_routing_0/rseg_4_v3_0.v23.t1 VDDH.t123 sky130_fd_pr__pfet_g5v0d10v5 ad=0.1218 pd=1.42 as=0.1218 ps=1.42 w=0.42 l=0.5
X60 top_segment_3_0.b[5].t1 top_segment_3_0.bb[5].t2 GND.t276 GND.t275 sky130_fd_pr__nfet_g5v0d10v5 ad=0.21375 pd=2.07 as=0.21375 ps=2.07 w=0.75 l=0.5
X61 GND.t440 GND.t441 GND.t49 sky130_fd_pr__res_xhigh_po_1p41 l=1.32
X62 top_segment_1_0.rseg_1_v3_1.v35.t0 top_segment_1_0.rseg_1_v3_1.v36.t1 GND.t72 sky130_fd_pr__res_xhigh_po_1p41 l=0.96
X63 top_segment_1_0.rseg_1_v3_1.v19.t2 top_segment_1_0.rseg_1_v3_1.v18.t1 GND.t49 sky130_fd_pr__res_xhigh_po_1p41 l=1.48
X64 top_dcell_routing_0.top_dcell_bias_0/top_digital_cell_0.decoder_3_0/decoder_2to4_2.dec_logic_0/sky130_fd_sc_hd__nand2_1_0.Y.t2 top_dcell_routing_0.top_dcell_bias_0/top_digital_cell_0.decoder_3_0/decoder_2to4_2.bb[0].t2 VDD.t40 VDD.t39 sky130_fd_pr__pfet_01v8_hvt ad=0.135 pd=1.27 as=0.26 ps=2.52 w=1 l=0.15
X65 top_segment_4_1.rseg_4_routing_0/rseg_4_v3_0.v24.t0 top_segment_4_1.DEC1.t3 a_13900_6674.t1 VDDH.t124 sky130_fd_pr__pfet_g5v0d10v5 ad=0.1218 pd=1.42 as=0.1218 ps=1.42 w=0.42 l=0.5
X66 a_42245_13704.t0 top_dcell_routing_0.top_dcell_bias_0/top_digital_cell_0.VBNLV.t7 a_42781_14260.t1 GND.t591 sky130_fd_pr__nfet_g5v0d10v5 ad=0.29 pd=2.58 as=0.29 ps=2.58 w=1 l=1
X67 top_segment_4_1.bb2.t1 top_dcell_routing_0.top_dcell_bias_0/top_digital_cell_0.lvsf_7bit_0/lvsf_buff_3/lvsf_0.OUTP.t3 VDDH.t4 VDDH.t3 sky130_fd_pr__pfet_g5v0d10v5 ad=0.4275 pd=3.57 as=0.4275 ps=3.57 w=1.5 l=0.5
X68 GND.t620 GND.t621 GND.t72 sky130_fd_pr__res_xhigh_po_1p41 l=1.02
X69 top_segment_4_1.rseg_4_routing_0/rseg_4_v3_0.v25.t2 top_segment_4_1.rseg_4_routing_0/rseg_4_v3_0.v24.t1 GND.t48 sky130_fd_pr__res_xhigh_po_1p41 l=0.76
X70 top_segment_2_0.rseg_2_v3_0.v6.t0 top_segment_2_0.rseg_2_v3_0.v5.t0 GND.t45 sky130_fd_pr__res_xhigh_po_1p41 l=7.42
X71 VDD.t36 top_dcell_routing_0.top_dcell_bias_0/top_digital_cell_0.dcell_lv_0.bb[8].t4 top_dcell_routing_0.top_dcell_bias_0/top_digital_cell_0.dcell_lv_0.b[8].t1 VDD.t35 sky130_fd_pr__pfet_01v8_hvt ad=0.26 pd=2.52 as=0.135 ps=1.27 w=1 l=0.15
X72 a_16831_17684.t0 top_segment_3_0.b[4].t2 a_13613_17684.t1 VDDH.t56 sky130_fd_pr__pfet_g5v0d10v5 ad=0.1218 pd=1.42 as=0.1218 ps=1.42 w=0.42 l=0.5
X73 top_dcell_routing_0.top_dcell_bias_0/top_digital_cell_0.decoder_3_0/dec_2_0/decoder_2to4_0.dec_logic_0/sky130_fd_sc_hd__nand2_1_3.Y.t1 top_dcell_routing_0.top_dcell_bias_0/top_digital_cell_0.lvsf_7bit_0/lvsf_buff_5/lvsf_0.IN.t4 a_43570_18104.t1 GND.t88 sky130_fd_pr__nfet_01v8 ad=0.169 pd=1.82 as=0.08775 ps=0.92 w=0.65 l=0.15
X74 a_15714_6674.t0 top_segment_4_1.DEC0.t2 top_segment_4_1.rseg_4_routing_0/rseg_4_v3_0.v14.t1 VDDH.t105 sky130_fd_pr__pfet_g5v0d10v5 ad=0.1218 pd=1.42 as=0.1218 ps=1.42 w=0.42 l=0.5
X75 top_dcell_routing_0.top_dcell_bias_0/top_digital_cell_0.dcell_lv_0.seg_selector_logic_0.x3/x3.B.t0 top_dcell_routing_0.top_dcell_bias_0/top_digital_cell_0.dcell_lv_0.b[9].t5 VDD.t185 VDD.t184 sky130_fd_pr__pfet_01v8_hvt ad=0.135 pd=1.27 as=0.26 ps=2.52 w=1 l=0.15
X76 top_segment_1_0.rseg_1_v3_1.v25.t2 top_segment_1_0.rseg_1_v3_1.v26.t2 GND.t188 sky130_fd_pr__res_xhigh_po_1p41 l=1.22
X77 VDD.t222 top_dcell_routing_0.top_dcell_bias_0/top_digital_cell_0.decoder_3_0/decoder_2to4_1.b[1].t4 top_dcell_routing_0.top_dcell_bias_0/top_digital_cell_0.decoder_3_0/decoder_2to4_1.dec_logic_0/sky130_fd_sc_hd__nand2_1_2.Y.t0 VDD.t221 sky130_fd_pr__pfet_01v8_hvt ad=0.26 pd=2.52 as=0.135 ps=1.27 w=1 l=0.15
X78 VDD.t87 DIN7.t0 top_dcell_routing_0.top_dcell_bias_0/top_digital_cell_0.decoder_3_0/decoder_2to4_1.bb[1].t3 VDD.t86 sky130_fd_pr__pfet_01v8_hvt ad=0.26 pd=2.52 as=0.135 ps=1.27 w=1 l=0.15
X79 top_segment_2_0.rseg_2_v3_0.v39.t2 top_segment_2_0.DEC0[2].t2 a_23510_19162.t2 GND.t34 sky130_fd_pr__nfet_g5v0d10v5 ad=0.1218 pd=1.42 as=0.1218 ps=1.42 w=0.42 l=0.5
X80 top_dcell_routing_0.top_dcell_bias_0/top_digital_cell_0.decoder_3_0/decoder_2to4_2.bb[1].t0 top_dcell_routing_0.top_dcell_bias_0/top_digital_cell_0.decoder_3_0/decoder_2to4_2.b[1].t4 VDD.t51 VDD.t14 sky130_fd_pr__pfet_01v8_hvt ad=0.26 pd=2.52 as=0.26 ps=2.52 w=1 l=0.15
X81 top_segment_4_1.rseg_4_routing_0/rseg_4_v3_0.v56.t2 top_segment_4_1.DEC3.t2 a_13900_6674.t3 VDDH.t191 sky130_fd_pr__pfet_g5v0d10v5 ad=0.1218 pd=1.42 as=0.1218 ps=1.42 w=0.42 l=0.5
X82 top_segment_1_0.rseg_1_v3_1.v33.t1 top_segment_1_0.rseg_1_v3_1.v34.t0 GND.t72 sky130_fd_pr__res_xhigh_po_1p41 l=1.02
X83 top_segment_2_0.rseg_2_v3_0.v12.t2 top_segment_2_0.rseg_2_v3_0.v13.t2 GND.t21 sky130_fd_pr__res_xhigh_po_1p41 l=5.58
X84 top_segment_2_0.DEC1[0].t1 top_segment_2_0.DEC1[3].t2 a_41787_18542.t1 VDDH.t74 sky130_fd_pr__pfet_g5v0d10v5 ad=0.2436 pd=2.26 as=0.1218 ps=1.13 w=0.84 l=1
X85 top_dcell_routing_0.top_dcell_bias_0/top_digital_cell_0.dcell_lv_0.logic_shift_seg2_0.x6.Y.t2 top_dcell_routing_0.top_dcell_bias_0/top_digital_cell_0.decoder_3_0/decoder_2to4_1.b[1].t5 VDD.t223 VDD.t43 sky130_fd_pr__pfet_01v8_hvt ad=0.135 pd=1.27 as=0.26 ps=2.52 w=1 l=0.15
X86 top_segment_3_0.rseg_3_v3_0.v4.t0 top_segment_3_0.rseg_3_v3_0.v5.t0 GND.t23 sky130_fd_pr__res_xhigh_po_1p41 l=3.53
X87 top_segment_1_0.rseg_1_v3_1.v50.t1 top_segment_2_0.DEC2[3].t3 a_26443_5238.t4 GND.t609 sky130_fd_pr__nfet_g5v0d10v5 ad=0.1218 pd=1.42 as=0.1218 ps=1.42 w=0.42 l=0.5
X88 GND.t2 top_dcell_routing_0.top_dcell_bias_0/top_digital_cell_0.decoder_3_0/decoder_2to4_2.dec_logic_0/sky130_fd_sc_hd__nand2_1_2.Y.t3 a_42609_20641.t1 GND.t1 sky130_fd_pr__nfet_01v8 ad=0.29 pd=2.29 as=0.58 ps=4.58 w=2 l=0.15
X89 top_segment_4_1.b3.t1 top_segment_4_1.bb3.t4 VDDH.t101 VDDH.t100 sky130_fd_pr__pfet_g5v0d10v5 ad=0.4275 pd=3.57 as=0.4275 ps=3.57 w=1.5 l=0.5
X90 VDDH.t168 top_dcell_routing_0.top_dcell_bias_0/top_digital_cell_0.VBPLV.t7 a_42271_11884.t0 VDDH.t167 sky130_fd_pr__pfet_g5v0d10v5 ad=0.145 pd=1.29 as=0.145 ps=1.29 w=1 l=0.8
X91 a_42802_2702.t1 top_dcell_routing_0.top_dcell_bias_0/top_digital_cell_0.dcell_lv_0.bb[9].t4 GND.t478 GND.t477 sky130_fd_pr__nfet_01v8 ad=0.08775 pd=0.92 as=0.169 ps=1.82 w=0.65 l=0.15
X92 GND.t597 GND.t598 GND.t56 sky130_fd_pr__res_xhigh_po_1p41 l=0.91
X93 top_segment_1_0.rseg_1_v3_1.v2.t2 top_segment_2_0.DEC2[0].t4 a_26443_5238.t3 GND.t73 sky130_fd_pr__nfet_g5v0d10v5 ad=0.1218 pd=1.42 as=0.1218 ps=1.42 w=0.42 l=0.5
X94 top_segment_2_0.rseg_2_v3_0.v44.t0 top_segment_2_0.rseg_2_v3_0.v43.t1 GND.t181 sky130_fd_pr__res_xhigh_po_1p41 l=5.58
X95 top_segment_4_1.rseg_4_routing_0/rseg_4_v3_0.v21.t2 top_segment_4_1.rseg_4_routing_0/rseg_4_v3_0.v22.t2 GND.t53 sky130_fd_pr__res_xhigh_po_1p41 l=0.71
X96 top_dcell_routing_0.top_dcell_bias_0/top_bias_lvsf_dec_0.cm2_pcell_0.cm2_pcell2_0.S4.t3 top_dcell_routing_0.top_dcell_bias_0/top_bias_lvsf_dec_0.cm2_pcell_0.D0.t6 top_dcell_routing_0.top_dcell_bias_0/top_digital_cell_0.VBNDEC.t1 VDDH.t14 sky130_fd_pr__pfet_g5v0d10v5 ad=0.522 pd=4.18 as=0.522 ps=4.18 w=1.8 l=1
X97 a_27429_5238.t4 top_segment_2_0.DEC2[3].t4 top_segment_1_0.rseg_1_v3_1.v53.t2 GND.t610 sky130_fd_pr__nfet_g5v0d10v5 ad=0.1218 pd=1.42 as=0.1218 ps=1.42 w=0.42 l=0.5
X98 a_42781_5984.t1 top_dcell_routing_0.top_dcell_bias_0/top_digital_cell_0.VBNLV.t8 top_dcell_routing_0.top_dcell_bias_0/top_digital_cell_0.seg_selector_lvsf_0/lvsf_inv_0/sky130_fd_sc_hvl__inv_1_1.A.t0 GND.t592 sky130_fd_pr__nfet_g5v0d10v5 ad=0.29 pd=2.58 as=0.29 ps=2.58 w=1 l=1
X99 top_segment_2_0.rseg_2_v3_0.v26.t1 top_segment_2_0.rseg_2_v3_0.v25.t1 GND.t122 sky130_fd_pr__res_xhigh_po_1p41 l=4.71
X100 a_14416_5238.t0 top_segment_4_1.b3.t3 a_19045_7938.t0 VDDH.t70 sky130_fd_pr__pfet_g5v0d10v5 ad=0.1218 pd=1.42 as=0.1218 ps=1.42 w=0.42 l=0.5
X101 GND.t364 GND.t365 GND.t33 sky130_fd_pr__res_xhigh_po_1p41 l=3.94
X102 a_42609_19573.t0 top_dcell_routing_0.top_dcell_bias_0/top_digital_cell_0.decoder_3_0/decoder_2to4_1.dec_logic_0/sky130_fd_sc_hd__nand2_1_3.Y.t3 GND.t80 GND.t79 sky130_fd_pr__nfet_01v8 ad=0.58 pd=4.58 as=0.29 ps=2.29 w=2 l=0.15
X103 top_segment_4_1.rseg_4_routing_0/rseg_4_v3_0.v51.t1 top_segment_4_1.rseg_4_routing_0/rseg_4_v3_0.v52.t1 GND.t4 sky130_fd_pr__res_xhigh_po_1p41 l=1.37
X104 top_segment_1_0.rseg_1_v3_1.v34.t2 top_segment_2_0.DEC2[2].t4 a_26443_5238.t1 GND.t97 sky130_fd_pr__nfet_g5v0d10v5 ad=0.1218 pd=1.42 as=0.1218 ps=1.42 w=0.42 l=0.5
X105 top_segment_2_0.rseg_2_v3_0.v8.t0 top_segment_2_0.rseg_2_v3_0.v7.t0 GND.t45 sky130_fd_pr__res_xhigh_po_1p41 l=6.65
X106 VDD.t22 top_dcell_routing_0.top_dcell_bias_0/top_digital_cell_0.decoder_3_0/decoder_2to4_1.bb[1].t6 top_dcell_routing_0.top_dcell_bias_0/top_digital_cell_0.dcell_lv_0.seg_selector_logic_0.x1/x3.A.t1 VDD.t21 sky130_fd_pr__pfet_01v8_hvt ad=0.26 pd=2.52 as=0.135 ps=1.27 w=1 l=0.15
X107 a_42245_15684.t1 top_dcell_routing_0.top_dcell_bias_0/top_digital_cell_0.lvsf_7bit_0/lvsf_buff_7/lvsf_0.OUTP.t2 a_42271_16280.t1 VDDH.t45 sky130_fd_pr__pfet_g5v0d10v5 ad=0.29 pd=2.58 as=0.145 ps=1.29 w=1 l=0.8
X108 a_43890_3610.t1 top_dcell_routing_0.top_dcell_bias_0/top_digital_cell_0.decoder_3_0/decoder_2to4_1.bb[1].t7 a_43890_3526.t1 GND.t113 sky130_fd_pr__nfet_01v8 ad=0.10725 pd=0.98 as=0.08775 ps=0.92 w=0.65 l=0.15
X109 top_segment_1_0.rseg_1_v3_1.v31.t2 top_segment_1_0.rseg_1_v3_1.v32.t2 GND.t188 sky130_fd_pr__res_xhigh_po_1p41 l=1.07
X110 top_segment_3_0.rseg_3_v3_0.v12.t2 top_segment_3_0.rseg_3_v3_0.v13.t0 GND.t33 sky130_fd_pr__res_xhigh_po_1p41 l=4.6
X111 a_14452_6674.t4 top_segment_4_1.bb3.t5 a_17823_7938.t2 VDDH.t102 sky130_fd_pr__pfet_g5v0d10v5 ad=0.1218 pd=1.42 as=0.1218 ps=1.42 w=0.42 l=0.5
X112 top_segment_4_1.rseg_4_routing_0/rseg_4_v3_0.v37.t0 top_segment_4_1.rseg_4_routing_0/rseg_4_v3_0.v38.t1 GND.t192 sky130_fd_pr__res_xhigh_po_1p41 l=0.96
X113 top_segment_2_0.rseg_2_v3_0.v2.t1 top_segment_2_0.rseg_2_v3_0.v1.t0 GND.t45 sky130_fd_pr__res_xhigh_po_1p41 l=10.24
X114 a_42609_20997.t0 top_dcell_routing_0.top_dcell_bias_0/top_digital_cell_0.decoder_3_0/decoder_2to4_2.dec_logic_0/sky130_fd_sc_hd__nand2_1_3.Y.t3 GND.t422 GND.t421 sky130_fd_pr__nfet_01v8 ad=0.58 pd=4.58 as=0.29 ps=2.29 w=2 l=0.15
X115 a_18099_7938.t1 top_segment_4_1.b3.t4 a_13154_5238.t0 VDDH.t71 sky130_fd_pr__pfet_g5v0d10v5 ad=0.1218 pd=1.42 as=0.1218 ps=1.42 w=0.42 l=0.5
X116 top_segment_1_0.rseg_1_v3_1.v18.t0 top_segment_2_0.DEC2[1].t5 a_26443_5238.t0 GND.t350 sky130_fd_pr__nfet_g5v0d10v5 ad=0.1218 pd=1.42 as=0.1218 ps=1.42 w=0.42 l=0.5
X117 a_41938_2314.t1 top_dcell_routing_0.top_dcell_bias_0/top_digital_cell_0.dcell_lv_0.b[8].t5 a_41938_2230.t0 GND.t78 sky130_fd_pr__nfet_01v8 ad=0.10725 pd=0.98 as=0.08775 ps=0.92 w=0.65 l=0.15
X118 top_dcell_routing_0.top_dcell_bias_0/top_digital_cell_0.decoder_3_0/decoder_2to4_1.bb[1].t0 DIN7.t1 VDD.t3 VDD.t2 sky130_fd_pr__pfet_01v8_hvt ad=0.135 pd=1.27 as=0.26 ps=2.52 w=1 l=0.15
X119 VDD.t7 top_dcell_routing_0.top_dcell_bias_0/top_digital_cell_0.dcell_lv_0.b[8].t6 top_dcell_routing_0.top_dcell_bias_0/top_digital_cell_0.dcell_lv_0.seg_selector_logic_0.x4/x3.A.t1 VDD.t6 sky130_fd_pr__pfet_01v8_hvt ad=0.26 pd=2.52 as=0.135 ps=1.27 w=1 l=0.15
X120 top_segment_1_0.rseg_1_v3_1.v42.t2 top_segment_2_0.DEC2[2].t5 a_28879_6674.t2 GND.t98 sky130_fd_pr__nfet_g5v0d10v5 ad=0.1218 pd=1.42 as=0.1218 ps=1.42 w=0.42 l=0.5
X121 GND.t611 top_segment_2_0.DEC2[3].t5 top_segment_4_1.DEC3.t0 GND.t339 sky130_fd_pr__nfet_g5v0d10v5 ad=0.21375 pd=2.07 as=0.21375 ps=2.07 w=0.75 l=0.5
X122 a_18493_7938.t2 top_segment_4_1.bb3.t6 a_15438_6674.t4 VDDH.t103 sky130_fd_pr__pfet_g5v0d10v5 ad=0.1218 pd=1.42 as=0.1218 ps=1.42 w=0.42 l=0.5
X123 VDDH.t266 VDDH.t264 VDDH.t265 VDDH.t249 sky130_fd_pr__pfet_g5v0d10v5 ad=0.522 pd=4.18 as=0 ps=0 w=1.8 l=1
X124 a_27429_5238.t0 top_segment_2_0.DEC2[1].t6 top_segment_1_0.rseg_1_v3_1.v21.t0 GND.t100 sky130_fd_pr__nfet_g5v0d10v5 ad=0.1218 pd=1.42 as=0.1218 ps=1.42 w=0.42 l=0.5
X125 top_segment_2_0.rseg_2_v3_0.v22.t0 top_segment_2_0.rseg_2_v3_0.v23.t0 GND.t8 sky130_fd_pr__res_xhigh_po_1p41 l=4.76
X126 a_41787_17802.t0 top_segment_2_0.DEC2[1].t7 a_41529_17802.t0 VDDH.t7 sky130_fd_pr__pfet_g5v0d10v5 ad=0.1218 pd=1.13 as=0.1218 ps=1.13 w=0.84 l=1
X127 VDD.t72 top_dcell_routing_0.top_dcell_bias_0/top_digital_cell_0.dcell_lv_0.seg_selector_logic_0.x3/x3.A.t5 top_dcell_routing_0.top_dcell_bias_0/top_digital_cell_0.seg_selector_lvsf_0/lvsf_inv_2/lvsf_0.IN.t0 VDD.t71 sky130_fd_pr__pfet_01v8_hvt ad=0.26 pd=2.52 as=0.135 ps=1.27 w=1 l=0.15
X128 top_segment_2_0.rseg_2_v3_0.v40.t0 top_segment_2_0.rseg_2_v3_0.v41.t1 GND.t324 sky130_fd_pr__res_xhigh_po_1p41 l=5.22
X129 top_segment_2_0.rseg_2_v3_0.v36.t1 top_segment_2_0.rseg_2_v3_0.v35.t1 GND.t0 sky130_fd_pr__res_xhigh_po_1p41 l=4.86
X130 top_segment_1_0.rseg_1_v3_1.v8.t1 top_segment_2_0.DEC2[0].t5 a_28327_6674.t3 GND.t74 sky130_fd_pr__nfet_g5v0d10v5 ad=0.1218 pd=1.42 as=0.1218 ps=1.42 w=0.42 l=0.5
X131 VDD.t120 DIN6.t0 top_dcell_routing_0.top_dcell_bias_0/top_digital_cell_0.lvsf_7bit_0/lvsf_buff_7/lvsf_0.INB.t1 VDD.t119 sky130_fd_pr__pfet_01v8_hvt ad=0.26 pd=2.52 as=0.135 ps=1.27 w=1 l=0.15
X132 top_dcell_routing_0.top_dcell_bias_0/top_digital_cell_0.dcell_lv_0.logic_shift_seg2_0.x7.Y.t0 top_dcell_routing_0.top_dcell_bias_0/top_digital_cell_0.lvsf_7bit_0/lvsf_buff_7/lvsf_0.IN.t5 a_43890_2518.t1 GND.t392 sky130_fd_pr__nfet_01v8 ad=0.169 pd=1.82 as=0.08775 ps=0.92 w=0.65 l=0.15
X133 a_41787_20308.t1 top_segment_2_0.DEC0[2].t3 a_41529_20308.t1 VDDH.t28 sky130_fd_pr__pfet_g5v0d10v5 ad=0.1218 pd=1.13 as=0.1218 ps=1.13 w=0.84 l=1
X134 top_segment_4_1.rseg_4_routing_0/rseg_4_v3_0.v23.t2 top_segment_4_1.rseg_4_routing_0/rseg_4_v3_0.v24.t2 GND.t53 sky130_fd_pr__res_xhigh_po_1p41 l=0.76
X135 top_dcell_routing_0.top_dcell_bias_0/top_digital_cell_0.lvsf_7bit_0/lvsf_buff_5/lvsf_0.INB.t3 DIN4.t0 VDD.t77 VDD.t76 sky130_fd_pr__pfet_01v8_hvt ad=0.135 pd=1.27 as=0.26 ps=2.52 w=1 l=0.15
X136 top_segment_1_0.rseg_1_v3_1.v7.t2 top_segment_1_0.rseg_1_v3_1.v8.t2 GND.t86 sky130_fd_pr__res_xhigh_po_1p41 l=2.5
X137 top_segment_1_0.rseg_1_v3_1.v19.t1 top_segment_1_0.rseg_1_v3_1.v20.t1 GND.t49 sky130_fd_pr__res_xhigh_po_1p41 l=1.48
X138 top_segment_1_0.rseg_1_v3_1.v47.t2 top_segment_1_0.rseg_1_v3_1.v48.t1 GND.t56 sky130_fd_pr__res_xhigh_po_1p41 l=0.76
X139 top_segment_2_0.DEC2[1].t1 top_segment_2_0.DEC2[3].t6 a_41787_17460.t1 VDDH.t40 sky130_fd_pr__pfet_g5v0d10v5 ad=0.2436 pd=2.26 as=0.1218 ps=1.13 w=0.84 l=1
X140 a_32851_7938.t0 top_segment_4_1.b3.t5 a_29589_6674.t1 GND.t124 sky130_fd_pr__nfet_g5v0d10v5 ad=0.1218 pd=1.42 as=0.1218 ps=1.42 w=0.42 l=0.5
X141 top_segment_2_0.rseg_2_v3_0.v34.t1 top_segment_2_0.rseg_2_v3_0.v33.t1 GND.t0 sky130_fd_pr__res_xhigh_po_1p41 l=4.76
X142 top_segment_2_0.rseg_2_v3_0.v30.t0 top_segment_2_0.DEC0[1].t2 a_19646_19162.t0 GND.t468 sky130_fd_pr__nfet_g5v0d10v5 ad=0.1218 pd=1.42 as=0.1218 ps=1.42 w=0.42 l=0.5
X143 a_41271_19226.t0 top_dcell_routing_0.top_dcell_bias_0/top_digital_cell_0.VBPDEC.t6 VDDH.t42 VDDH.t41 sky130_fd_pr__pfet_g5v0d10v5 ad=0.1218 pd=1.13 as=0.2436 ps=2.26 w=0.84 l=1
X144 top_segment_2_0.rseg_2_v3_0.v42.t0 top_segment_2_0.DEC0[2].t4 a_19094_19162.t0 GND.t35 sky130_fd_pr__nfet_g5v0d10v5 ad=0.1218 pd=1.42 as=0.1218 ps=1.42 w=0.42 l=0.5
X145 top_dcell_routing_0.top_dcell_bias_0/top_digital_cell_0.dcell_lv_0.logic_shift_seg2_0.x8.Y.t0 top_dcell_routing_0.top_dcell_bias_0/top_digital_cell_0.lvsf_7bit_0/lvsf_buff_7/lvsf_0.INB.t4 a_43890_3610.t0 GND.t158 sky130_fd_pr__nfet_01v8 ad=0.169 pd=1.82 as=0.10725 ps=0.98 w=0.65 l=0.15
X146 top_segment_3_0.b[6].t1 top_segment_3_0.bb[6].t3 VDDH.t212 VDDH.t211 sky130_fd_pr__pfet_g5v0d10v5 ad=0.4275 pd=3.57 as=0.4275 ps=3.57 w=1.5 l=0.5
X147 a_18217_7938.t2 top_segment_4_1.bb3.t7 a_15162_6674.t4 VDDH.t104 sky130_fd_pr__pfet_g5v0d10v5 ad=0.1218 pd=1.42 as=0.1218 ps=1.42 w=0.42 l=0.5
X148 top_dcell_routing_0.top_dcell_bias_0/top_digital_cell_0.dcell_lv_0.seg_selector_logic_0.x1/x3.A.t0 top_dcell_routing_0.top_dcell_bias_0/top_digital_cell_0.lvsf_7bit_0/lvsf_buff_7/lvsf_0.INB.t5 VDD.t128 VDD.t127 sky130_fd_pr__pfet_01v8_hvt ad=0.135 pd=1.27 as=0.26 ps=2.52 w=1 l=0.15
X149 a_43890_3526.t0 top_dcell_routing_0.top_dcell_bias_0/top_digital_cell_0.dcell_lv_0.bb[8].t5 GND.t139 GND.t138 sky130_fd_pr__nfet_01v8 ad=0.08775 pd=0.92 as=0.169 ps=1.82 w=0.65 l=0.15
X150 a_13645_18854.t2 top_segment_3_0.b[6].t2 top_segment_4_1.V0.t3 VDDH.t306 sky130_fd_pr__pfet_g5v0d10v5 ad=0.1218 pd=1.42 as=0.1218 ps=1.42 w=0.42 l=0.5
X151 top_segment_4_1.rseg_4_routing_0/rseg_4_v3_0.v27.t1 top_segment_4_1.rseg_4_routing_0/rseg_4_v3_0.v28.t0 GND.t48 sky130_fd_pr__res_xhigh_po_1p41 l=0.81
X152 a_22176_17121.t3 top_segment_2_0.DEC2[0].t6 VH2.t2 GND.t75 sky130_fd_pr__nfet_g5v0d10v5 ad=0.1218 pd=1.42 as=0.1218 ps=1.42 w=0.42 l=0.5
X153 a_19479_9019.t0 top_segment_4_1.b2.t4 a_17271_7938.t0 VDDH.t165 sky130_fd_pr__pfet_g5v0d10v5 ad=0.1218 pd=1.42 as=0.1218 ps=1.42 w=0.42 l=0.5
X154 top_dcell_routing_0.top_dcell_bias_0/top_digital_cell_0.dcell_lv_0.seg_selector_logic_0.x2/x4.A.t2 top_dcell_routing_0.top_dcell_bias_0/top_digital_cell_0.dcell_lv_0.bb[8].t6 a_42802_2150.t1 GND.t140 sky130_fd_pr__nfet_01v8 ad=0.169 pd=1.82 as=0.08775 ps=0.92 w=0.65 l=0.15
X155 GND.t211 GND.t212 GND.t122 sky130_fd_pr__res_xhigh_po_1p41 l=4.71
X156 top_segment_2_0.V0.t0 top_segment_2_0.DEC0[0].t4 a_22406_19162.t2 GND.t252 sky130_fd_pr__nfet_g5v0d10v5 ad=0.1218 pd=1.42 as=0.1218 ps=1.42 w=0.42 l=0.5
X157 a_34000_9019.t0 top_segment_4_1.b2.t5 a_33403_7938.t0 GND.t288 sky130_fd_pr__nfet_g5v0d10v5 ad=0.1218 pd=1.42 as=0.1218 ps=1.42 w=0.42 l=0.5
X158 top_segment_3_0.rseg_3_v3_0.v10.t1 top_segment_3_0.rseg_3_v3_0.v9.t1 GND.t33 sky130_fd_pr__res_xhigh_po_1p41 l=4.09
X159 GND.t472 top_dcell_routing_0.top_dcell_bias_0/top_digital_cell_0.lvsf_7bit_0/lvsf_buff_1/lvsf_0.INB.t4 a_42781_10934.t1 GND.t471 sky130_fd_pr__nfet_01v8 ad=0.435 pd=3.29 as=0.87 ps=6.58 w=3 l=0.15
X160 top_segment_1_0.rseg_1_v3_1.v26.t0 top_segment_2_0.DEC2[1].t8 a_28879_6674.t0 GND.t570 sky130_fd_pr__nfet_g5v0d10v5 ad=0.1218 pd=1.42 as=0.1218 ps=1.42 w=0.42 l=0.5
X161 top_dcell_routing_0.top_dcell_bias_0/top_digital_cell_0.lvsf_7bit_0/lvsf_buff_1/lvsf_0.IN.t1 top_dcell_routing_0.top_dcell_bias_0/top_digital_cell_0.lvsf_7bit_0/lvsf_buff_1/lvsf_0.INB.t5 VDD.t150 VDD.t149 sky130_fd_pr__pfet_01v8_hvt ad=0.135 pd=1.27 as=0.26 ps=2.52 w=1 l=0.15
X162 a_18899_9019.t2 top_segment_4_1.bb2.t5 a_18769_7938.t0 VDDH.t113 sky130_fd_pr__pfet_g5v0d10v5 ad=0.1218 pd=1.42 as=0.1218 ps=1.42 w=0.42 l=0.5
X163 top_dcell_routing_0.top_dcell_bias_0/top_bias_lvsf_dec_0.cm2_pcell_0.D1.t3 top_dcell_routing_0.top_dcell_bias_0/top_bias_lvsf_dec_0.cm2_pcell_0.D1.t2 a_35435_18774.t1 GND.t119 sky130_fd_pr__nfet_g5v0d10v5 ad=0.174 pd=1.78 as=0.174 ps=1.78 w=0.6 l=1
X164 a_42245_8754.t1 top_dcell_routing_0.top_dcell_bias_0/top_digital_cell_0.VBNLV.t9 a_42781_9310.t0 GND.t593 sky130_fd_pr__nfet_g5v0d10v5 ad=0.29 pd=2.58 as=0.29 ps=2.58 w=1 l=1
X165 VDD.t152 top_dcell_routing_0.top_dcell_bias_0/top_digital_cell_0.dcell_lv_0.bb[9].t5 top_dcell_routing_0.top_dcell_bias_0/top_digital_cell_0.dcell_lv_0.seg_selector_logic_0.x2/x4.B.t0 VDD.t151 sky130_fd_pr__pfet_01v8_hvt ad=0.26 pd=2.52 as=0.135 ps=1.27 w=1 l=0.15
X166 GND.t182 GND.t183 GND.t49 sky130_fd_pr__res_xhigh_po_1p41 l=1.58
X167 a_18899_9019.t1 top_segment_4_1.bb1.t2 a_18319_9019.t1 VDDH.t188 sky130_fd_pr__pfet_g5v0d10v5 ad=0.1218 pd=1.42 as=0.1218 ps=1.42 w=0.42 l=0.5