* PEX produced on Sun Jul 20 22:38:46 WIB 2025 using ./iic-pex.sh with m=2 and s=1
* NGSPICE file created from top_buffer_opamp.ext - technology: sky130A

.subckt op_amp_posim P_IN[0] P_IN[1] P_IN[2] P_IN[3] P_IN[4] N_IN VOUT ROUT VDDA
+ GNDA
X0 VDDA opa_input_and_self_bias_0/opa_input_stage_0/cm_head_0/cm_pcell1_0.G1 opa_input_and_self_bias_0/opa_input_stage_0/cm_head_0/cm_pcell1_0.ho3 VDDA sky130_fd_pr__pfet_g5v0d10v5 ad=0.522 pd=4.18 as=0.522 ps=4.18 w=1.8 l=1
X1 opa_input_and_self_bias_0/opa_input_stage_0/cm_head_0/cm_pcell1_0.io1 opa_input_and_self_bias_0/cm_pcell3_0.VB2 opa_input_and_self_bias_0/cm_ncell3_0.DRAIN VDDA sky130_fd_pr__pfet_g5v0d10v5 ad=0.522 pd=4.18 as=0.522 ps=4.18 w=1.8 l=1
X2 opa_input_and_self_bias_0/opa_input_stage_0/opa_diffpairs_0/dp_pmos_top_0/dp_pmos_5.I_OPA VOUT sky130_fd_pr__cap_mim_m3_1 l=2 w=2
X3 opa_input_and_self_bias_0/opa_input_stage_0/cm_head_0/cm_pcell1_0.G1 opa_input_and_self_bias_0/cm_pcell3_0.VB2 opa_input_and_self_bias_0/opa_input_stage_0/cm_head_0/cm_pcell1_0.io0 VDDA sky130_fd_pr__pfet_g5v0d10v5 ad=0.522 pd=4.18 as=0.522 ps=4.18 w=1.8 l=1
X4 opa_input_and_self_bias_0/opa_input_stage_0/cm_tail_0/cm_ncell1_0.io0 opa_input_and_self_bias_0/cm_ncell3_0.VTAIL2 opa_input_and_self_bias_0/opa_input_stage_0/cm_tail_0/cm_ncell1_0.G1 GNDA sky130_fd_pr__nfet_g5v0d10v5 ad=0.174 pd=1.78 as=0.174 ps=1.78 w=0.6 l=1
X5 opa_input_and_self_bias_0/opa_input_stage_0/cm_head_0/cm_pcell1_0.ho4 opa_input_and_self_bias_0/opa_input_stage_0/cm_head_0/cm_pcell1_0.G1 VDDA VDDA sky130_fd_pr__pfet_g5v0d10v5 ad=0.522 pd=4.18 as=0.522 ps=4.18 w=1.8 l=1
X6 GNDA opa_folded_cascode_0.monticelli_top_0.B VOUT GNDA sky130_fd_pr__nfet_g5v0d10v5 ad=0.29 pd=2.58 as=0.145 ps=1.29 w=1 l=1
X7 opa_input_and_self_bias_0/opa_input_stage_0/cm_head_0/cm_pcell1_0.G1 opa_input_and_self_bias_0/cm_pcell3_0.VB2 opa_input_and_self_bias_0/opa_input_stage_0/cm_head_0/cm_pcell1_0.io0 VDDA sky130_fd_pr__pfet_g5v0d10v5 ad=0.522 pd=4.18 as=0.522 ps=4.18 w=1.8 l=1
X8 GNDA opa_input_and_self_bias_0/opa_input_stage_0/cm_tail_0/cm_ncell1_0.G1 opa_input_and_self_bias_0/opa_input_stage_0/cm_tail_0/cm_ncell1_0.to4 GNDA sky130_fd_pr__nfet_g5v0d10v5 ad=0.174 pd=1.78 as=0.174 ps=1.78 w=0.6 l=1
X9 VDDA opa_input_and_self_bias_0/opa_input_stage_0/cm_head_0/cm_pcell1_0.G1 opa_input_and_self_bias_0/opa_input_stage_0/cm_head_0/cm_pcell1_0.io1 VDDA sky130_fd_pr__pfet_g5v0d10v5 ad=0.522 pd=4.18 as=0.522 ps=4.18 w=1.8 l=1
X10 opa_input_and_self_bias_0/opa_input_stage_0/cm_head_0/cm_pcell1_0.G1 opa_input_and_self_bias_0/cm_pcell3_0.VB2 opa_input_and_self_bias_0/opa_input_stage_0/cm_head_0/cm_pcell1_0.io0 VDDA sky130_fd_pr__pfet_g5v0d10v5 ad=0.522 pd=4.18 as=0.522 ps=4.18 w=1.8 l=1
X11 opa_input_and_self_bias_0/opa_input_stage_0/opa_diffpairs_0/dp_nmos_top_0/dp_nmos_5.I_ONA VOUT sky130_fd_pr__cap_mim_m3_1 l=2 w=2
X12 GNDA GNDA GNDA GNDA sky130_fd_pr__nfet_g5v0d10v5 ad=0.174 pd=1.78 as=27.84 ps=269.72 w=0.6 l=1
X13 a_n9736_226# N_IN opa_input_and_self_bias_0/opa_input_stage_0/opa_diffpairs_0/dp_nmos_top_0/dp_nmos_5.I_ONB GNDA sky130_fd_pr__nfet_g5v0d10v5 ad=0.145 pd=1.29 as=0.145 ps=1.29 w=1 l=1
X14 opa_input_and_self_bias_0/opa_input_stage_0/cm_head_0/cm_pcell1_0.io0 opa_input_and_self_bias_0/cm_pcell3_0.VB2 opa_input_and_self_bias_0/opa_input_stage_0/cm_head_0/cm_pcell1_0.G1 VDDA sky130_fd_pr__pfet_g5v0d10v5 ad=0.522 pd=4.18 as=0.522 ps=4.18 w=1.8 l=1
X15 opa_folded_cascode_0.monticelli_top_0.A opa_folded_cascode_0.VB2 opa_folded_cascode_0.monticelli_top_0.B GNDA sky130_fd_pr__nfet_g5v0d10v5 ad=0.464 pd=3.78 as=0.464 ps=3.78 w=1.6 l=1
X16 VDDA opa_input_and_self_bias_0/opa_input_stage_0/cm_head_0/cm_pcell1_0.G1 opa_input_and_self_bias_0/opa_input_stage_0/cm_head_0/cm_pcell1_0.io1 VDDA sky130_fd_pr__pfet_g5v0d10v5 ad=0.522 pd=4.18 as=0.522 ps=4.18 w=1.8 l=1
X17 opa_input_and_self_bias_0/opa_input_stage_0/opa_diffpairs_0/dp_nmos_top_0/dp_nmos_5.I_ONA VOUT sky130_fd_pr__cap_mim_m3_1 l=2 w=2
X18 GNDA opa_input_and_self_bias_0/opa_input_stage_0/cm_tail_0/cm_ncell1_0.G1 opa_input_and_self_bias_0/opa_input_stage_0/cm_tail_0/cm_ncell1_0.io0 GNDA sky130_fd_pr__nfet_g5v0d10v5 ad=0.174 pd=1.78 as=0.174 ps=1.78 w=0.6 l=1
X19 opa_input_and_self_bias_0/opa_input_stage_0/cm_tail_0/cm_ncell1_0.to4 opa_input_and_self_bias_0/cm_ncell3_0.VTAIL2 a_n11789_1598# GNDA sky130_fd_pr__nfet_g5v0d10v5 ad=0.174 pd=1.78 as=0.174 ps=1.78 w=0.6 l=1
X20 a_n9736_226# P_IN[2] opa_input_and_self_bias_0/opa_input_stage_0/opa_diffpairs_0/dp_nmos_top_0/dp_nmos_5.I_ONA GNDA sky130_fd_pr__nfet_g5v0d10v5 ad=0.145 pd=1.29 as=0.145 ps=1.29 w=1 l=1
X21 opa_input_and_self_bias_0/opa_input_stage_0/opa_diffpairs_0/dp_pmos_top_0/dp_pmos_5.I_OPB N_IN opa_input_and_self_bias_0/opa_input_stage_0/opa_diffpairs_0/dp_pmos_top_0/dp_pmos_5.I_HEAD VDDA sky130_fd_pr__pfet_g5v0d10v5 ad=0.435 pd=3.29 as=0.435 ps=3.29 w=3 l=1
X22 GNDA GNDA sky130_fd_pr__cap_mim_m3_1 l=2 w=2
X23 opa_input_and_self_bias_0/opa_input_stage_0/opa_diffpairs_0/dp_pmos_top_0/dp_pmos_0.I_HEAD P_IN[4] opa_input_and_self_bias_0/opa_input_stage_0/opa_diffpairs_0/dp_pmos_top_0/dp_pmos_5.I_OPA VDDA sky130_fd_pr__pfet_g5v0d10v5 ad=0.435 pd=3.29 as=0.87 ps=6.58 w=3 l=1
X24 VDDA opa_input_and_self_bias_0/opa_input_stage_0/cm_head_0/cm_pcell1_0.G1 opa_input_and_self_bias_0/opa_input_stage_0/cm_head_0/cm_pcell1_0.ho4 VDDA sky130_fd_pr__pfet_g5v0d10v5 ad=0.522 pd=4.18 as=0.522 ps=4.18 w=1.8 l=1
X25 opa_input_and_self_bias_0/opa_input_stage_0/cm_tail_0/cm_ncell1_0.G1 opa_input_and_self_bias_0/cm_ncell3_0.VTAIL2 opa_input_and_self_bias_0/opa_input_stage_0/cm_tail_0/cm_ncell1_0.io0 GNDA sky130_fd_pr__nfet_g5v0d10v5 ad=0.174 pd=1.78 as=0.174 ps=1.78 w=0.6 l=1
X26 VDDA opa_input_and_self_bias_0/opa_input_stage_0/cm_head_0/cm_pcell1_0.G1 opa_input_and_self_bias_0/opa_input_stage_0/cm_head_0/cm_pcell1_0.ho4 VDDA sky130_fd_pr__pfet_g5v0d10v5 ad=0.522 pd=4.18 as=0.522 ps=4.18 w=1.8 l=1
X27 VDDA opa_input_and_self_bias_0/opa_input_stage_0/cm_head_0/cm_pcell1_0.G1 opa_input_and_self_bias_0/opa_input_stage_0/cm_head_0/cm_pcell1_0.ho4 VDDA sky130_fd_pr__pfet_g5v0d10v5 ad=0.522 pd=4.18 as=0.522 ps=4.18 w=1.8 l=1
X28 VDDA a_n4822_n1462# a_n4822_n1462# VDDA sky130_fd_pr__pfet_g5v0d10v5 ad=1.392 pd=10.18 as=0.696 ps=5.09 w=4.8 l=1
X29 GNDA opa_input_and_self_bias_0/opa_input_stage_0/cm_tail_0/cm_ncell1_0.G1 opa_input_and_self_bias_0/opa_input_stage_0/cm_tail_0/cm_ncell1_0.to3 GNDA sky130_fd_pr__nfet_g5v0d10v5 ad=0.174 pd=1.78 as=0.174 ps=1.78 w=0.6 l=1
X30 opa_input_and_self_bias_0/cm_ncell3_0.DRAIN opa_input_and_self_bias_0/cm_pcell3_0.VB2 opa_input_and_self_bias_0/opa_input_stage_0/cm_head_0/cm_pcell1_0.io1 VDDA sky130_fd_pr__pfet_g5v0d10v5 ad=0.522 pd=4.18 as=0.522 ps=4.18 w=1.8 l=1
X31 GNDA GNDA GNDA GNDA sky130_fd_pr__nfet_g5v0d10v5 ad=0.174 pd=1.78 as=0 ps=0 w=0.6 l=1
X32 opa_input_and_self_bias_0/opa_input_stage_0/cm_tail_0/cm_ncell1_0.to4 opa_input_and_self_bias_0/cm_ncell3_0.VTAIL2 a_n11789_1598# GNDA sky130_fd_pr__nfet_g5v0d10v5 ad=0.174 pd=1.78 as=0.174 ps=1.78 w=0.6 l=1
X33 GNDA opa_folded_cascode_0.monticelli_top_0.Bx opa_input_and_self_bias_0/opa_input_stage_0/opa_diffpairs_0/dp_pmos_top_0/dp_pmos_5.I_OPB GNDA sky130_fd_pr__nfet_g5v0d10v5 ad=0.232 pd=1.89 as=0.232 ps=1.89 w=1.6 l=1
X34 VDDA opa_input_and_self_bias_0/opa_input_stage_0/cm_head_0/cm_pcell1_0.G1 opa_input_and_self_bias_0/opa_input_stage_0/cm_head_0/cm_pcell1_0.ho4 VDDA sky130_fd_pr__pfet_g5v0d10v5 ad=0.522 pd=4.18 as=0.522 ps=4.18 w=1.8 l=1
X35 GNDA GNDA sky130_fd_pr__cap_mim_m3_1 l=2 w=2
X36 opa_input_and_self_bias_0/opa_input_stage_0/cm_tail_0/cm_ncell1_0.io1 opa_input_and_self_bias_0/opa_input_stage_0/cm_tail_0/cm_ncell1_0.G1 GNDA GNDA sky130_fd_pr__nfet_g5v0d10v5 ad=0.174 pd=1.78 as=0.174 ps=1.78 w=0.6 l=1
X37 opa_input_and_self_bias_0/opa_input_stage_0/opa_diffpairs_0/dp_pmos_top_0/dp_pmos_5.I_OPB N_IN opa_input_and_self_bias_0/opa_input_stage_0/opa_diffpairs_0/dp_pmos_top_0/dp_pmos_0.I_HEAD VDDA sky130_fd_pr__pfet_g5v0d10v5 ad=0.435 pd=3.29 as=0.435 ps=3.29 w=3 l=1
X38 VDDA opa_input_and_self_bias_0/opa_input_stage_0/cm_head_0/cm_pcell1_0.G1 opa_input_and_self_bias_0/opa_input_stage_0/cm_head_0/cm_pcell1_0.io0 VDDA sky130_fd_pr__pfet_g5v0d10v5 ad=0.522 pd=4.18 as=0.522 ps=4.18 w=1.8 l=1
X39 VDDA opa_input_and_self_bias_0/opa_input_stage_0/cm_head_0/cm_pcell1_0.G1 opa_input_and_self_bias_0/opa_input_stage_0/cm_head_0/cm_pcell1_0.io0 VDDA sky130_fd_pr__pfet_g5v0d10v5 ad=0.522 pd=4.18 as=0.522 ps=4.18 w=1.8 l=1
X40 opa_input_and_self_bias_0/opa_input_stage_0/cm_head_0/cm_pcell1_0.io1 opa_input_and_self_bias_0/cm_pcell3_0.VB2 opa_input_and_self_bias_0/cm_ncell3_0.DRAIN VDDA sky130_fd_pr__pfet_g5v0d10v5 ad=0.522 pd=4.18 as=0.522 ps=4.18 w=1.8 l=1
X41 VDDA VDDA VDDA VDDA sky130_fd_pr__pfet_g5v0d10v5 ad=0.522 pd=4.18 as=95.352 ps=756.20001 w=1.8 l=1
X42 GNDA GNDA GNDA GNDA sky130_fd_pr__nfet_g5v0d10v5 ad=0.232 pd=1.89 as=0 ps=0 w=1.6 l=1
X43 opa_input_and_self_bias_0/opa_input_stage_0/cm_head_0/cm_pcell1_0.G1 opa_input_and_self_bias_0/cm_pcell3_0.VB2 opa_input_and_self_bias_0/opa_input_stage_0/cm_head_0/cm_pcell1_0.io0 VDDA sky130_fd_pr__pfet_g5v0d10v5 ad=0.522 pd=4.18 as=0.522 ps=4.18 w=1.8 l=1
X44 opa_input_and_self_bias_0/opa_input_stage_0/opa_diffpairs_0/dp_pmos_top_0/dp_pmos_5.I_OPB opa_input_and_self_bias_0/cm_ncell3_0.VTAIL2 opa_folded_cascode_0.monticelli_top_0.Bx GNDA sky130_fd_pr__nfet_g5v0d10v5 ad=0.464 pd=3.78 as=0.464 ps=3.78 w=1.6 l=1
X45 opa_input_and_self_bias_0/opa_input_stage_0/cm_tail_0/cm_ncell1_0.io0 opa_input_and_self_bias_0/opa_input_stage_0/cm_tail_0/cm_ncell1_0.G1 GNDA GNDA sky130_fd_pr__nfet_g5v0d10v5 ad=0.174 pd=1.78 as=0.174 ps=1.78 w=0.6 l=1
X46 a_n9242_n890# P_IN[1] opa_input_and_self_bias_0/opa_input_stage_0/opa_diffpairs_0/dp_nmos_top_0/dp_nmos_5.I_ONA GNDA sky130_fd_pr__nfet_g5v0d10v5 ad=0.145 pd=1.29 as=0.29 ps=2.58 w=1 l=1
X47 VDDA VDDA VDDA VDDA sky130_fd_pr__pfet_g5v0d10v5 ad=0.522 pd=4.18 as=0 ps=0 w=1.8 l=1
X48 opa_input_and_self_bias_0/opa_input_stage_0/cm_head_0/cm_pcell1_0.G1 opa_input_and_self_bias_0/cm_pcell3_0.VB2 opa_input_and_self_bias_0/opa_input_stage_0/cm_head_0/cm_pcell1_0.io0 VDDA sky130_fd_pr__pfet_g5v0d10v5 ad=0.522 pd=4.18 as=0.522 ps=4.18 w=1.8 l=1
X49 opa_input_and_self_bias_0/opa_input_stage_0/cm_head_0/cm_pcell1_0.io0 opa_input_and_self_bias_0/opa_input_stage_0/cm_head_0/cm_pcell1_0.G1 VDDA VDDA sky130_fd_pr__pfet_g5v0d10v5 ad=0.522 pd=4.18 as=0.522 ps=4.18 w=1.8 l=1
X50 a_n9242_n890# N_IN opa_input_and_self_bias_0/opa_input_stage_0/opa_diffpairs_0/dp_nmos_top_0/dp_nmos_5.I_ONB GNDA sky130_fd_pr__nfet_g5v0d10v5 ad=0.145 pd=1.29 as=0.29 ps=2.58 w=1 l=1
X51 opa_input_and_self_bias_0/opa_input_stage_0/opa_diffpairs_0/dp_pmos_top_0/dp_pmos_5.I_OPA P_IN[0] opa_input_and_self_bias_0/opa_input_stage_0/opa_diffpairs_0/dp_pmos_top_0/dp_pmos_5.I_HEAD VDDA sky130_fd_pr__pfet_g5v0d10v5 ad=0.87 pd=6.58 as=0.435 ps=3.29 w=3 l=1
X52 opa_input_and_self_bias_0/opa_input_stage_0/cm_head_0/cm_pcell1_0.io2 opa_input_and_self_bias_0/opa_input_stage_0/cm_head_0/cm_pcell1_0.G1 VDDA VDDA sky130_fd_pr__pfet_g5v0d10v5 ad=0.522 pd=4.18 as=0.522 ps=4.18 w=1.8 l=1
X53 opa_input_and_self_bias_0/opa_input_stage_0/cm_tail_0/cm_ncell1_0.to4 opa_input_and_self_bias_0/opa_input_stage_0/cm_tail_0/cm_ncell1_0.G1 GNDA GNDA sky130_fd_pr__nfet_g5v0d10v5 ad=0.174 pd=1.78 as=0.174 ps=1.78 w=0.6 l=1
X54 opa_input_and_self_bias_0/opa_input_stage_0/opa_diffpairs_0/dp_pmos_top_0/dp_pmos_0.I_HEAD N_IN opa_input_and_self_bias_0/opa_input_stage_0/opa_diffpairs_0/dp_pmos_top_0/dp_pmos_5.I_OPB VDDA sky130_fd_pr__pfet_g5v0d10v5 ad=0.435 pd=3.29 as=0.435 ps=3.29 w=3 l=1
X55 VDDA VDDA VDDA VDDA sky130_fd_pr__pfet_g5v0d10v5 ad=0.522 pd=4.18 as=0 ps=0 w=1.8 l=1
X56 VDDA opa_input_and_self_bias_0/opa_input_stage_0/cm_head_0/cm_pcell1_0.G1 opa_input_and_self_bias_0/opa_input_stage_0/cm_head_0/cm_pcell1_0.io1 VDDA sky130_fd_pr__pfet_g5v0d10v5 ad=0.522 pd=4.18 as=0.522 ps=4.18 w=1.8 l=1
X57 opa_input_and_self_bias_0/opa_input_stage_0/opa_diffpairs_0/dp_nmos_top_0/dp_nmos_5.I_ONB N_IN a_n9242_n890# GNDA sky130_fd_pr__nfet_g5v0d10v5 ad=0.145 pd=1.29 as=0.145 ps=1.29 w=1 l=1
X58 opa_input_and_self_bias_0/opa_input_stage_0/cm_head_0/cm_pcell1_0.ho3 opa_input_and_self_bias_0/opa_input_stage_0/cm_head_0/cm_pcell1_0.G1 VDDA VDDA sky130_fd_pr__pfet_g5v0d10v5 ad=0.522 pd=4.18 as=0.522 ps=4.18 w=1.8 l=1
X59 opa_input_and_self_bias_0/opa_input_stage_0/cm_head_0/cm_pcell1_0.io0 opa_input_and_self_bias_0/opa_input_stage_0/cm_head_0/cm_pcell1_0.G1 VDDA VDDA sky130_fd_pr__pfet_g5v0d10v5 ad=0.522 pd=4.18 as=0.522 ps=4.18 w=1.8 l=1
X60 opa_input_and_self_bias_0/opa_input_stage_0/cm_head_0/cm_pcell1_0.io0 opa_input_and_self_bias_0/cm_pcell3_0.VB2 opa_input_and_self_bias_0/opa_input_stage_0/cm_head_0/cm_pcell1_0.G1 VDDA sky130_fd_pr__pfet_g5v0d10v5 ad=0.522 pd=4.18 as=0.522 ps=4.18 w=1.8 l=1
X61 opa_input_and_self_bias_0/opa_input_stage_0/opa_diffpairs_0/dp_pmos_top_0/dp_pmos_5.I_OPA VOUT sky130_fd_pr__cap_mim_m3_1 l=2 w=2
X62 GNDA GNDA sky130_fd_pr__cap_mim_m3_1 l=2 w=2
X63 opa_input_and_self_bias_0/opa_input_stage_0/opa_diffpairs_0/dp_nmos_top_0/dp_nmos_5.I_ONA VOUT sky130_fd_pr__cap_mim_m3_1 l=2 w=2
X64 opa_folded_cascode_0.monticelli_top_0.B opa_input_and_self_bias_0/cm_ncell3_0.VTAIL2 opa_input_and_self_bias_0/opa_input_stage_0/opa_diffpairs_0/dp_pmos_top_0/dp_pmos_5.I_OPA GNDA sky130_fd_pr__nfet_g5v0d10v5 ad=0.464 pd=3.78 as=0.464 ps=3.78 w=1.6 l=1
X65 opa_input_and_self_bias_0/opa_input_stage_0/opa_diffpairs_0/dp_nmos_top_0/dp_nmos_5.I_ONA P_IN[1] a_n9242_n890# GNDA sky130_fd_pr__nfet_g5v0d10v5 ad=0.145 pd=1.29 as=0.145 ps=1.29 w=1 l=1
X66 opa_input_and_self_bias_0/opa_input_stage_0/opa_diffpairs_0/dp_nmos_top_0/dp_nmos_5.I_ONA opa_folded_cascode_0.monticelli_top_0.Ax VDDA VDDA sky130_fd_pr__pfet_g5v0d10v5 ad=1.392 pd=10.18 as=1.392 ps=10.18 w=4.8 l=1
X67 VDDA opa_input_and_self_bias_0/opa_input_stage_0/cm_head_0/cm_pcell1_0.G1 opa_input_and_self_bias_0/opa_input_stage_0/cm_head_0/cm_pcell1_0.ho3 VDDA sky130_fd_pr__pfet_g5v0d10v5 ad=0.522 pd=4.18 as=0.522 ps=4.18 w=1.8 l=1
X68 opa_input_and_self_bias_0/opa_input_stage_0/cm_head_0/cm_pcell1_0.io0 opa_input_and_self_bias_0/cm_pcell3_0.VB2 opa_input_and_self_bias_0/opa_input_stage_0/cm_head_0/cm_pcell1_0.G1 VDDA sky130_fd_pr__pfet_g5v0d10v5 ad=0.522 pd=4.18 as=0.522 ps=4.18 w=1.8 l=1
X69 opa_input_and_self_bias_0/opa_input_stage_0/opa_diffpairs_0/dp_pmos_top_0/dp_pmos_5.I_OPB N_IN opa_input_and_self_bias_0/opa_input_stage_0/opa_diffpairs_0/dp_pmos_top_0/dp_pmos_3.I_HEAD VDDA sky130_fd_pr__pfet_g5v0d10v5 ad=0.87 pd=6.58 as=0.435 ps=3.29 w=3 l=1
X70 opa_input_and_self_bias_0/opa_input_stage_0/opa_diffpairs_0/dp_nmos_top_0/dp_nmos_5.I_ONA VOUT sky130_fd_pr__cap_mim_m3_1 l=2 w=2
X71 a_n9242_n890# N_IN opa_input_and_self_bias_0/opa_input_stage_0/opa_diffpairs_0/dp_nmos_top_0/dp_nmos_5.I_ONB GNDA sky130_fd_pr__nfet_g5v0d10v5 ad=0.145 pd=1.29 as=0.145 ps=1.29 w=1 l=1
X72 opa_input_and_self_bias_0/opa_input_stage_0/cm_head_0/cm_pcell1_0.ho4 opa_input_and_self_bias_0/cm_pcell3_0.VB2 opa_input_and_self_bias_0/opa_input_stage_0/opa_diffpairs_0/dp_pmos_top_0/dp_pmos_0.I_HEAD VDDA sky130_fd_pr__pfet_g5v0d10v5 ad=0.522 pd=4.18 as=0.522 ps=4.18 w=1.8 l=1
X73 opa_input_and_self_bias_0/opa_input_stage_0/cm_tail_0/cm_ncell1_0.to3 opa_input_and_self_bias_0/opa_input_stage_0/cm_tail_0/cm_ncell1_0.G1 GNDA GNDA sky130_fd_pr__nfet_g5v0d10v5 ad=0.174 pd=1.78 as=0.174 ps=1.78 w=0.6 l=1
X74 opa_folded_cascode_0.monticelli_top_0.A opa_input_and_self_bias_0/cm_pcell3_0.VB2 opa_input_and_self_bias_0/opa_input_stage_0/opa_diffpairs_0/dp_nmos_top_0/dp_nmos_5.I_ONA VDDA sky130_fd_pr__pfet_g5v0d10v5 ad=1.392 pd=10.18 as=1.392 ps=10.18 w=4.8 l=1
X75 opa_input_and_self_bias_0/cm_ncell3_0.DRAIN opa_input_and_self_bias_0/cm_pcell3_0.VB2 opa_input_and_self_bias_0/opa_input_stage_0/cm_head_0/cm_pcell1_0.io1 VDDA sky130_fd_pr__pfet_g5v0d10v5 ad=0.522 pd=4.18 as=0.522 ps=4.18 w=1.8 l=1
X76 GNDA opa_input_and_self_bias_0/opa_input_stage_0/cm_tail_0/cm_ncell1_0.G1 opa_input_and_self_bias_0/opa_input_stage_0/cm_tail_0/cm_ncell1_0.to2 GNDA sky130_fd_pr__nfet_g5v0d10v5 ad=0.174 pd=1.78 as=0.174 ps=1.78 w=0.6 l=1
X77 a_n9242_n890# P_IN[1] opa_input_and_self_bias_0/opa_input_stage_0/opa_diffpairs_0/dp_nmos_top_0/dp_nmos_5.I_ONA GNDA sky130_fd_pr__nfet_g5v0d10v5 ad=0.145 pd=1.29 as=0.145 ps=1.29 w=1 l=1
X78 opa_input_and_self_bias_0/opa_input_stage_0/opa_diffpairs_0/dp_pmos_top_0/dp_pmos_3.I_HEAD N_IN opa_input_and_self_bias_0/opa_input_stage_0/opa_diffpairs_0/dp_pmos_top_0/dp_pmos_5.I_OPB VDDA sky130_fd_pr__pfet_g5v0d10v5 ad=0.435 pd=3.29 as=0.435 ps=3.29 w=3 l=1
X79 GNDA opa_input_and_self_bias_0/opa_input_stage_0/cm_tail_0/cm_ncell1_0.G1 opa_input_and_self_bias_0/opa_input_stage_0/cm_tail_0/cm_ncell1_0.io0 GNDA sky130_fd_pr__nfet_g5v0d10v5 ad=0.174 pd=1.78 as=0.174 ps=1.78 w=0.6 l=1
X80 opa_input_and_self_bias_0/opa_input_stage_0/cm_tail_0/cm_ncell1_0.G1 opa_input_and_self_bias_0/cm_ncell3_0.VTAIL2 opa_input_and_self_bias_0/opa_input_stage_0/cm_tail_0/cm_ncell1_0.io0 GNDA sky130_fd_pr__nfet_g5v0d10v5 ad=0.174 pd=1.78 as=0.174 ps=1.78 w=0.6 l=1
X81 GNDA GNDA sky130_fd_pr__cap_mim_m3_1 l=2 w=2
X82 VDDA opa_input_and_self_bias_0/opa_input_stage_0/cm_head_0/cm_pcell1_0.G1 opa_input_and_self_bias_0/opa_input_stage_0/cm_head_0/cm_pcell1_0.ho3 VDDA sky130_fd_pr__pfet_g5v0d10v5 ad=0.522 pd=4.18 as=0.522 ps=4.18 w=1.8 l=1
X83 GNDA GNDA GNDA GNDA sky130_fd_pr__nfet_g5v0d10v5 ad=0.232 pd=1.89 as=0 ps=0 w=1.6 l=1
X84 VDDA opa_input_and_self_bias_0/opa_input_stage_0/cm_head_0/cm_pcell1_0.G1 opa_input_and_self_bias_0/opa_input_stage_0/cm_head_0/cm_pcell1_0.io0 VDDA sky130_fd_pr__pfet_g5v0d10v5 ad=0.522 pd=4.18 as=0.522 ps=4.18 w=1.8 l=1
X85 opa_input_and_self_bias_0/opa_input_stage_0/opa_diffpairs_0/dp_pmos_top_0/dp_pmos_5.I_OPA VOUT sky130_fd_pr__cap_mim_m3_1 l=2 w=2
X86 opa_input_and_self_bias_0/opa_input_stage_0/opa_diffpairs_0/dp_nmos_top_0/dp_nmos_5.I_ONA P_IN[1] a_n9242_n890# GNDA sky130_fd_pr__nfet_g5v0d10v5 ad=0.29 pd=2.58 as=0.145 ps=1.29 w=1 l=1
X87 opa_input_and_self_bias_0/opa_input_stage_0/opa_diffpairs_0/dp_nmos_top_0/dp_nmos_5.I_ONB N_IN a_n10488_226# GNDA sky130_fd_pr__nfet_g5v0d10v5 ad=0.145 pd=1.29 as=0.145 ps=1.29 w=1 l=1
X88 opa_folded_cascode_0.VB1 opa_folded_cascode_0.VB1 a_n4822_n1462# VDDA sky130_fd_pr__pfet_g5v0d10v5 ad=1.392 pd=10.18 as=0.696 ps=5.09 w=4.8 l=1
X89 opa_input_and_self_bias_0/opa_input_stage_0/cm_head_0/cm_pcell1_0.ho1 opa_input_and_self_bias_0/cm_pcell3_0.VB2 opa_input_and_self_bias_0/opa_input_stage_0/opa_diffpairs_0/dp_pmos_top_0/dp_pmos_2.I_HEAD VDDA sky130_fd_pr__pfet_g5v0d10v5 ad=0.522 pd=4.18 as=0.522 ps=4.18 w=1.8 l=1
X90 GNDA opa_input_and_self_bias_0/opa_input_stage_0/cm_tail_0/cm_ncell1_0.G1 opa_input_and_self_bias_0/opa_input_stage_0/cm_tail_0/cm_ncell1_0.to4 GNDA sky130_fd_pr__nfet_g5v0d10v5 ad=0.174 pd=1.78 as=0.174 ps=1.78 w=0.6 l=1
X91 a_n9736_226# opa_input_and_self_bias_0/cm_ncell3_0.VTAIL2 opa_input_and_self_bias_0/opa_input_stage_0/cm_tail_0/cm_ncell1_0.to2 GNDA sky130_fd_pr__nfet_g5v0d10v5 ad=0.174 pd=1.78 as=0.174 ps=1.78 w=0.6 l=1
X92 opa_input_and_self_bias_0/opa_input_stage_0/opa_diffpairs_0/dp_nmos_top_0/dp_nmos_5.I_ONA P_IN[3] a_n10488_226# GNDA sky130_fd_pr__nfet_g5v0d10v5 ad=0.145 pd=1.29 as=0.145 ps=1.29 w=1 l=1
X93 opa_input_and_self_bias_0/opa_input_stage_0/opa_diffpairs_0/dp_nmos_top_0/dp_nmos_5.I_ONA VOUT sky130_fd_pr__cap_mim_m3_1 l=2 w=2
X94 opa_input_and_self_bias_0/opa_input_stage_0/cm_tail_0/cm_ncell1_0.G1 opa_input_and_self_bias_0/cm_ncell3_0.VTAIL2 opa_input_and_self_bias_0/opa_input_stage_0/cm_tail_0/cm_ncell1_0.io0 GNDA sky130_fd_pr__nfet_g5v0d10v5 ad=0.174 pd=1.78 as=0.174 ps=1.78 w=0.6 l=1
X95 GNDA GNDA GNDA GNDA sky130_fd_pr__nfet_g5v0d10v5 ad=0.174 pd=1.78 as=0 ps=0 w=0.6 l=1
X96 opa_input_and_self_bias_0/opa_input_stage_0/opa_diffpairs_0/dp_nmos_top_0/dp_nmos_5.I_ONB N_IN a_n9242_n890# GNDA sky130_fd_pr__nfet_g5v0d10v5 ad=0.29 pd=2.58 as=0.145 ps=1.29 w=1 l=1
X97 opa_input_and_self_bias_0/opa_input_stage_0/cm_head_0/cm_pcell1_0.ho4 opa_input_and_self_bias_0/opa_input_stage_0/cm_head_0/cm_pcell1_0.G1 VDDA VDDA sky130_fd_pr__pfet_g5v0d10v5 ad=0.522 pd=4.18 as=0.522 ps=4.18 w=1.8 l=1
X98 opa_input_and_self_bias_0/opa_input_stage_0/cm_head_0/cm_pcell1_0.ho4 opa_input_and_self_bias_0/cm_pcell3_0.VB2 opa_input_and_self_bias_0/opa_input_stage_0/opa_diffpairs_0/dp_pmos_top_0/dp_pmos_0.I_HEAD VDDA sky130_fd_pr__pfet_g5v0d10v5 ad=0.522 pd=4.18 as=0.522 ps=4.18 w=1.8 l=1
X99 GNDA GNDA sky130_fd_pr__cap_mim_m3_1 l=2 w=2
X100 opa_input_and_self_bias_0/opa_input_stage_0/cm_tail_0/cm_ncell1_0.io0 opa_input_and_self_bias_0/opa_input_stage_0/cm_tail_0/cm_ncell1_0.G1 GNDA GNDA sky130_fd_pr__nfet_g5v0d10v5 ad=0.174 pd=1.78 as=0.174 ps=1.78 w=0.6 l=1
X101 opa_input_and_self_bias_0/opa_input_stage_0/opa_diffpairs_0/dp_pmos_top_0/dp_pmos_5.I_OPB N_IN opa_input_and_self_bias_0/opa_input_stage_0/opa_diffpairs_0/dp_pmos_top_0/dp_pmos_0.I_HEAD VDDA sky130_fd_pr__pfet_g5v0d10v5 ad=0.87 pd=6.58 as=0.435 ps=3.29 w=3 l=1
X102 GNDA GNDA sky130_fd_pr__cap_mim_m3_1 l=2 w=2
X103 opa_input_and_self_bias_0/opa_input_stage_0/cm_tail_0/cm_ncell1_0.io0 opa_input_and_self_bias_0/opa_input_stage_0/cm_tail_0/cm_ncell1_0.G1 GNDA GNDA sky130_fd_pr__nfet_g5v0d10v5 ad=0.174 pd=1.78 as=0.174 ps=1.78 w=0.6 l=1
X104 opa_folded_cascode_0.VB2 opa_input_and_self_bias_0/cm_pcell3_0.VB2 opa_input_and_self_bias_0/opa_input_stage_0/cm_head_0/cm_pcell1_0.io2 VDDA sky130_fd_pr__pfet_g5v0d10v5 ad=0.522 pd=4.18 as=0.522 ps=4.18 w=1.8 l=1
X105 a_n4822_464# opa_folded_cascode_0.VB2 opa_folded_cascode_0.VB2 GNDA sky130_fd_pr__nfet_g5v0d10v5 ad=0.232 pd=1.89 as=0.464 ps=3.78 w=1.6 l=1
X106 GNDA GNDA GNDA GNDA sky130_fd_pr__nfet_g5v0d10v5 ad=0.174 pd=1.78 as=0 ps=0 w=0.6 l=1
X107 GNDA GNDA sky130_fd_pr__cap_mim_m3_1 l=2 w=2
X108 GNDA opa_input_and_self_bias_0/opa_input_stage_0/cm_tail_0/cm_ncell1_0.G1 opa_input_and_self_bias_0/opa_input_stage_0/cm_tail_0/cm_ncell1_0.io0 GNDA sky130_fd_pr__nfet_g5v0d10v5 ad=0.174 pd=1.78 as=0.174 ps=1.78 w=0.6 l=1
X109 opa_input_and_self_bias_0/opa_input_stage_0/cm_head_0/cm_pcell1_0.io0 opa_input_and_self_bias_0/cm_pcell3_0.VB2 opa_input_and_self_bias_0/opa_input_stage_0/cm_head_0/cm_pcell1_0.G1 VDDA sky130_fd_pr__pfet_g5v0d10v5 ad=0.522 pd=4.18 as=0.522 ps=4.18 w=1.8 l=1
X110 a_n7784_12197# ROUT ROUT VDDA sky130_fd_pr__pfet_g5v0d10v5 ad=0.261 pd=2.09 as=0.522 ps=4.18 w=1.8 l=20
X111 a_n10488_226# opa_input_and_self_bias_0/cm_ncell3_0.VTAIL2 opa_input_and_self_bias_0/opa_input_stage_0/cm_tail_0/cm_ncell1_0.to3 GNDA sky130_fd_pr__nfet_g5v0d10v5 ad=0.174 pd=1.78 as=0.174 ps=1.78 w=0.6 l=1
X112 opa_input_and_self_bias_0/opa_input_stage_0/opa_diffpairs_0/dp_nmos_top_0/dp_nmos_5.I_ONB opa_folded_cascode_0.monticelli_top_0.Ax VDDA VDDA sky130_fd_pr__pfet_g5v0d10v5 ad=1.392 pd=10.18 as=1.392 ps=10.18 w=4.8 l=1
X113 opa_input_and_self_bias_0/opa_input_stage_0/opa_diffpairs_0/dp_pmos_top_0/dp_pmos_2.I_HEAD P_IN[1] opa_input_and_self_bias_0/opa_input_stage_0/opa_diffpairs_0/dp_pmos_top_0/dp_pmos_5.I_OPA VDDA sky130_fd_pr__pfet_g5v0d10v5 ad=0.435 pd=3.29 as=0.87 ps=6.58 w=3 l=1
X114 opa_input_and_self_bias_0/opa_input_stage_0/cm_tail_0/cm_ncell1_0.to4 opa_input_and_self_bias_0/opa_input_stage_0/cm_tail_0/cm_ncell1_0.G1 GNDA GNDA sky130_fd_pr__nfet_g5v0d10v5 ad=0.174 pd=1.78 as=0.174 ps=1.78 w=0.6 l=1
X115 GNDA opa_input_and_self_bias_0/opa_input_stage_0/cm_tail_0/cm_ncell1_0.G1 opa_input_and_self_bias_0/opa_input_stage_0/cm_tail_0/cm_ncell1_0.to4 GNDA sky130_fd_pr__nfet_g5v0d10v5 ad=0.174 pd=1.78 as=0.174 ps=1.78 w=0.6 l=1
X116 VDDA VDDA VDDA VDDA sky130_fd_pr__pfet_g5v0d10v5 ad=0.522 pd=4.18 as=0 ps=0 w=1.8 l=1
X117 a_n11843_11539# a_n11843_11539# opa_input_and_self_bias_0/cm_pcell3_0.VB2 VDDA sky130_fd_pr__pfet_g5v0d10v5 ad=0.522 pd=4.18 as=0.261 ps=2.09 w=1.8 l=20
X118 opa_input_and_self_bias_0/cm_pcell3_0.VB2 a_n11843_11539# a_n11843_11539# VDDA sky130_fd_pr__pfet_g5v0d10v5 ad=0.261 pd=2.09 as=0.522 ps=4.18 w=1.8 l=20
X119 opa_input_and_self_bias_0/cm_ncell3_0.DRAIN opa_input_and_self_bias_0/cm_ncell3_0.DRAIN opa_input_and_self_bias_0/cm_ncell3_0.VTAIL2 GNDA sky130_fd_pr__nfet_g5v0d10v5 ad=0.174 pd=1.78 as=0.087 ps=0.89 w=0.6 l=20
X120 opa_input_and_self_bias_0/opa_input_stage_0/opa_diffpairs_0/dp_pmos_top_0/dp_pmos_5.I_OPB N_IN opa_input_and_self_bias_0/opa_input_stage_0/opa_diffpairs_0/dp_pmos_top_0/dp_pmos_2.I_HEAD VDDA sky130_fd_pr__pfet_g5v0d10v5 ad=0.435 pd=3.29 as=0.435 ps=3.29 w=3 l=1
X121 VDDA opa_input_and_self_bias_0/opa_input_stage_0/cm_head_0/cm_pcell1_0.G1 opa_input_and_self_bias_0/opa_input_stage_0/cm_head_0/cm_pcell1_0.ho4 VDDA sky130_fd_pr__pfet_g5v0d10v5 ad=0.522 pd=4.18 as=0.522 ps=4.18 w=1.8 l=1
X122 opa_input_and_self_bias_0/opa_input_stage_0/cm_head_0/cm_pcell1_0.io2 opa_input_and_self_bias_0/cm_pcell3_0.VB2 opa_folded_cascode_0.VB2 VDDA sky130_fd_pr__pfet_g5v0d10v5 ad=0.522 pd=4.18 as=0.522 ps=4.18 w=1.8 l=1
X123 opa_input_and_self_bias_0/opa_input_stage_0/cm_head_0/cm_pcell1_0.ho2 opa_input_and_self_bias_0/cm_pcell3_0.VB2 opa_input_and_self_bias_0/opa_input_stage_0/opa_diffpairs_0/dp_pmos_top_0/dp_pmos_3.I_HEAD VDDA sky130_fd_pr__pfet_g5v0d10v5 ad=0.522 pd=4.18 as=0.522 ps=4.18 w=1.8 l=1
X124 opa_input_and_self_bias_0/opa_input_stage_0/opa_diffpairs_0/dp_pmos_top_0/dp_pmos_5.I_OPA VOUT sky130_fd_pr__cap_mim_m3_1 l=2 w=2
X125 opa_input_and_self_bias_0/opa_input_stage_0/cm_head_0/cm_pcell1_0.G1 opa_input_and_self_bias_0/cm_pcell3_0.VB2 opa_input_and_self_bias_0/opa_input_stage_0/cm_head_0/cm_pcell1_0.io0 VDDA sky130_fd_pr__pfet_g5v0d10v5 ad=0.522 pd=4.18 as=0.522 ps=4.18 w=1.8 l=1
X126 GNDA GNDA sky130_fd_pr__cap_mim_m3_1 l=2 w=2
X127 opa_input_and_self_bias_0/opa_input_stage_0/cm_head_0/cm_pcell1_0.io2 opa_input_and_self_bias_0/cm_pcell3_0.VB2 opa_folded_cascode_0.VB2 VDDA sky130_fd_pr__pfet_g5v0d10v5 ad=0.522 pd=4.18 as=0.522 ps=4.18 w=1.8 l=1
X128 opa_input_and_self_bias_0/opa_input_stage_0/cm_tail_0/cm_ncell1_0.io0 opa_input_and_self_bias_0/cm_ncell3_0.VTAIL2 opa_input_and_self_bias_0/opa_input_stage_0/cm_tail_0/cm_ncell1_0.G1 GNDA sky130_fd_pr__nfet_g5v0d10v5 ad=0.174 pd=1.78 as=0.174 ps=1.78 w=0.6 l=1
X129 a_n9242_226# N_IN opa_input_and_self_bias_0/opa_input_stage_0/opa_diffpairs_0/dp_nmos_top_0/dp_nmos_5.I_ONB GNDA sky130_fd_pr__nfet_g5v0d10v5 ad=0.145 pd=1.29 as=0.145 ps=1.29 w=1 l=1
X130 opa_input_and_self_bias_0/opa_input_stage_0/cm_head_0/cm_pcell1_0.ho3 opa_input_and_self_bias_0/cm_pcell3_0.VB2 opa_input_and_self_bias_0/opa_input_stage_0/opa_diffpairs_0/dp_pmos_top_0/dp_pmos_1.I_HEAD VDDA sky130_fd_pr__pfet_g5v0d10v5 ad=0.522 pd=4.18 as=0.522 ps=4.18 w=1.8 l=1
X131 opa_folded_cascode_0.monticelli_top_0.Bx opa_input_and_self_bias_0/cm_ncell3_0.VTAIL2 opa_input_and_self_bias_0/opa_input_stage_0/opa_diffpairs_0/dp_pmos_top_0/dp_pmos_5.I_OPB GNDA sky130_fd_pr__nfet_g5v0d10v5 ad=0.464 pd=3.78 as=0.464 ps=3.78 w=1.6 l=1
X132 opa_input_and_self_bias_0/opa_input_stage_0/opa_diffpairs_0/dp_pmos_top_0/dp_pmos_2.I_HEAD N_IN opa_input_and_self_bias_0/opa_input_stage_0/opa_diffpairs_0/dp_pmos_top_0/dp_pmos_5.I_OPB VDDA sky130_fd_pr__pfet_g5v0d10v5 ad=0.435 pd=3.29 as=0.435 ps=3.29 w=3 l=1
X133 GNDA GNDA sky130_fd_pr__cap_mim_m3_1 l=2 w=2
X134 opa_folded_cascode_0.VB1 opa_input_and_self_bias_0/cm_ncell3_0.VTAIL2 opa_input_and_self_bias_0/opa_input_stage_0/cm_tail_0/cm_ncell1_0.io1 GNDA sky130_fd_pr__nfet_g5v0d10v5 ad=0.174 pd=1.78 as=0.174 ps=1.78 w=0.6 l=1
X135 a_n9242_226# P_IN[0] opa_input_and_self_bias_0/opa_input_stage_0/opa_diffpairs_0/dp_nmos_top_0/dp_nmos_5.I_ONA GNDA sky130_fd_pr__nfet_g5v0d10v5 ad=0.145 pd=1.29 as=0.145 ps=1.29 w=1 l=1
X136 opa_folded_cascode_0.monticelli_top_0.B opa_folded_cascode_0.VB1 opa_folded_cascode_0.monticelli_top_0.A VDDA sky130_fd_pr__pfet_g5v0d10v5 ad=1.392 pd=10.18 as=1.392 ps=10.18 w=4.8 l=1
X137 GNDA GNDA GNDA GNDA sky130_fd_pr__nfet_g5v0d10v5 ad=0.174 pd=1.78 as=0 ps=0 w=0.6 l=1
X138 GNDA opa_input_and_self_bias_0/opa_input_stage_0/cm_tail_0/cm_ncell1_0.G1 opa_input_and_self_bias_0/opa_input_stage_0/cm_tail_0/cm_ncell1_0.io1 GNDA sky130_fd_pr__nfet_g5v0d10v5 ad=0.174 pd=1.78 as=0.174 ps=1.78 w=0.6 l=1
X139 opa_input_and_self_bias_0/opa_input_stage_0/opa_diffpairs_0/dp_pmos_top_0/dp_pmos_5.I_OPA VOUT sky130_fd_pr__cap_mim_m3_1 l=2 w=2
X140 opa_input_and_self_bias_0/opa_input_stage_0/cm_tail_0/cm_ncell1_0.io0 opa_input_and_self_bias_0/opa_input_stage_0/cm_tail_0/cm_ncell1_0.G1 GNDA GNDA sky130_fd_pr__nfet_g5v0d10v5 ad=0.174 pd=1.78 as=0.174 ps=1.78 w=0.6 l=1
X141 a_n9736_226# P_IN[2] opa_input_and_self_bias_0/opa_input_stage_0/opa_diffpairs_0/dp_nmos_top_0/dp_nmos_5.I_ONA GNDA sky130_fd_pr__nfet_g5v0d10v5 ad=0.145 pd=1.29 as=0.29 ps=2.58 w=1 l=1
X142 opa_input_and_self_bias_0/opa_input_stage_0/opa_diffpairs_0/dp_pmos_top_0/dp_pmos_0.I_HEAD opa_input_and_self_bias_0/cm_pcell3_0.VB2 opa_input_and_self_bias_0/opa_input_stage_0/cm_head_0/cm_pcell1_0.ho4 VDDA sky130_fd_pr__pfet_g5v0d10v5 ad=0.522 pd=4.18 as=0.522 ps=4.18 w=1.8 l=1
X143 opa_input_and_self_bias_0/opa_input_stage_0/cm_tail_0/cm_ncell1_0.to1 opa_input_and_self_bias_0/cm_ncell3_0.VTAIL2 a_n9242_n890# GNDA sky130_fd_pr__nfet_g5v0d10v5 ad=0.174 pd=1.78 as=0.174 ps=1.78 w=0.6 l=1
X144 opa_folded_cascode_0.monticelli_top_0.Ax opa_folded_cascode_0.VB2 opa_folded_cascode_0.monticelli_top_0.Bx GNDA sky130_fd_pr__nfet_g5v0d10v5 ad=0.464 pd=3.78 as=0.464 ps=3.78 w=1.6 l=1
X145 GNDA GNDA sky130_fd_pr__cap_mim_m3_1 l=2 w=2
X146 opa_input_and_self_bias_0/opa_input_stage_0/cm_tail_0/cm_ncell1_0.io1 opa_input_and_self_bias_0/cm_ncell3_0.VTAIL2 opa_folded_cascode_0.VB1 GNDA sky130_fd_pr__nfet_g5v0d10v5 ad=0.174 pd=1.78 as=0.174 ps=1.78 w=0.6 l=1
X147 a_n9736_226# N_IN opa_input_and_self_bias_0/opa_input_stage_0/opa_diffpairs_0/dp_nmos_top_0/dp_nmos_5.I_ONB GNDA sky130_fd_pr__nfet_g5v0d10v5 ad=0.145 pd=1.29 as=0.29 ps=2.58 w=1 l=1
X148 opa_input_and_self_bias_0/opa_input_stage_0/opa_diffpairs_0/dp_pmos_top_0/dp_pmos_5.I_OPA P_IN[1] opa_input_and_self_bias_0/opa_input_stage_0/opa_diffpairs_0/dp_pmos_top_0/dp_pmos_2.I_HEAD VDDA sky130_fd_pr__pfet_g5v0d10v5 ad=0.87 pd=6.58 as=0.435 ps=3.29 w=3 l=1