* NGSPICE file created from DAC_10b_top.ext - technology: sky130A

.subckt sky130_fd_pr__pfet_g5v0d10v5_Y8TEUT a_129_420# a_n129_145# a_n129_394# a_129_n327#
+ a_n29_420# a_129_n576# a_n187_171# a_129_n78# w_n223_n389# w_n223_109# w_n223_358#
+ a_n29_n78# a_n187_420# a_29_n104# a_29_n353# a_n129_n353# a_n129_n104# a_29_145#
+ a_29_394# w_n223_n638# w_n223_n140# a_n187_n78# a_29_n602# a_n129_n602# a_n29_n576#
+ a_n29_n327# a_129_171# a_n187_n327# a_n187_n576# a_n29_171#
X0 a_129_171# a_29_145# a_n29_171# w_n223_109# sky130_fd_pr__pfet_g5v0d10v5 ad=0.1218 pd=1.42 as=0.0609 ps=0.71 w=0.42 l=0.5
X1 a_n29_n327# a_n129_n353# a_n187_n327# w_n223_n389# sky130_fd_pr__pfet_g5v0d10v5 ad=0.0609 pd=0.71 as=0.1218 ps=1.42 w=0.42 l=0.5
X2 a_n29_171# a_n129_145# a_n187_171# w_n223_109# sky130_fd_pr__pfet_g5v0d10v5 ad=0.0609 pd=0.71 as=0.1218 ps=1.42 w=0.42 l=0.5
X3 a_129_420# a_29_394# a_n29_420# w_n223_358# sky130_fd_pr__pfet_g5v0d10v5 ad=0.1218 pd=1.42 as=0.0609 ps=0.71 w=0.42 l=0.5
X4 a_129_n78# a_29_n104# a_n29_n78# w_n223_n140# sky130_fd_pr__pfet_g5v0d10v5 ad=0.1218 pd=1.42 as=0.0609 ps=0.71 w=0.42 l=0.5
X5 a_129_n576# a_29_n602# a_n29_n576# w_n223_n638# sky130_fd_pr__pfet_g5v0d10v5 ad=0.1218 pd=1.42 as=0.0609 ps=0.71 w=0.42 l=0.5
X6 a_n29_420# a_n129_394# a_n187_420# w_n223_358# sky130_fd_pr__pfet_g5v0d10v5 ad=0.0609 pd=0.71 as=0.1218 ps=1.42 w=0.42 l=0.5
X7 a_n29_n78# a_n129_n104# a_n187_n78# w_n223_n140# sky130_fd_pr__pfet_g5v0d10v5 ad=0.0609 pd=0.71 as=0.1218 ps=1.42 w=0.42 l=0.5
X8 a_n29_n576# a_n129_n602# a_n187_n576# w_n223_n638# sky130_fd_pr__pfet_g5v0d10v5 ad=0.0609 pd=0.71 as=0.1218 ps=1.42 w=0.42 l=0.5
X9 a_129_n327# a_29_n353# a_n29_n327# w_n223_n389# sky130_fd_pr__pfet_g5v0d10v5 ad=0.1218 pd=1.42 as=0.0609 ps=0.71 w=0.42 l=0.5
.ends

.subckt seg_sel_pmos sky130_fd_pr__pfet_g5v0d10v5_Y8TEUT_0/a_129_171# sky130_fd_pr__pfet_g5v0d10v5_Y8TEUT_0/a_n29_171#
+ sky130_fd_pr__pfet_g5v0d10v5_Y8TEUT_0/a_129_420# sky130_fd_pr__pfet_g5v0d10v5_Y8TEUT_0/a_n29_n327#
+ sky130_fd_pr__pfet_g5v0d10v5_Y8TEUT_0/a_n29_n576# sky130_fd_pr__pfet_g5v0d10v5_Y8TEUT_0/a_n29_420#
+ m1_6687_620# sky130_fd_pr__pfet_g5v0d10v5_Y8TEUT_0/a_129_n78# sky130_fd_pr__pfet_g5v0d10v5_Y8TEUT_0/a_n29_n78#
+ sky130_fd_pr__pfet_g5v0d10v5_Y8TEUT_0/a_129_n327# w_6231_294# m1_6529_620# sky130_fd_pr__pfet_g5v0d10v5_Y8TEUT_0/a_129_n576#
+ li_6309_372# m1_6767_472#
Xsky130_fd_pr__pfet_g5v0d10v5_Y8TEUT_0 sky130_fd_pr__pfet_g5v0d10v5_Y8TEUT_0/a_129_420#
+ m1_6687_620# m1_6687_620# sky130_fd_pr__pfet_g5v0d10v5_Y8TEUT_0/a_129_n327# sky130_fd_pr__pfet_g5v0d10v5_Y8TEUT_0/a_n29_420#
+ sky130_fd_pr__pfet_g5v0d10v5_Y8TEUT_0/a_129_n576# m1_6767_472# sky130_fd_pr__pfet_g5v0d10v5_Y8TEUT_0/a_129_n78#
+ w_6231_294# w_6231_294# w_6231_294# sky130_fd_pr__pfet_g5v0d10v5_Y8TEUT_0/a_n29_n78#
+ m1_6767_472# m1_6529_620# m1_6529_620# m1_6687_620# m1_6687_620# m1_6529_620# m1_6529_620#
+ w_6231_294# w_6231_294# m1_6767_472# m1_6529_620# m1_6687_620# sky130_fd_pr__pfet_g5v0d10v5_Y8TEUT_0/a_n29_n576#
+ sky130_fd_pr__pfet_g5v0d10v5_Y8TEUT_0/a_n29_n327# sky130_fd_pr__pfet_g5v0d10v5_Y8TEUT_0/a_129_171#
+ m1_6767_472# m1_6767_472# sky130_fd_pr__pfet_g5v0d10v5_Y8TEUT_0/a_n29_171# sky130_fd_pr__pfet_g5v0d10v5_Y8TEUT
.ends

.subckt sky130_fd_pr__pfet_g5v0d10v5_Z832FA a_n129_145# a_129_n327# a_n187_171# a_129_n78#
+ w_n223_n389# w_n223_109# a_n29_n78# a_29_n104# a_29_n353# a_n129_n353# a_n129_n104#
+ a_29_145# w_n223_n140# a_n187_n78# a_n29_n327# a_129_171# a_n187_n327# a_n29_171#
X0 a_129_171# a_29_145# a_n29_171# w_n223_109# sky130_fd_pr__pfet_g5v0d10v5 ad=0.1218 pd=1.42 as=0.0609 ps=0.71 w=0.42 l=0.5
X1 a_n29_n327# a_n129_n353# a_n187_n327# w_n223_n389# sky130_fd_pr__pfet_g5v0d10v5 ad=0.0609 pd=0.71 as=0.1218 ps=1.42 w=0.42 l=0.5
X2 a_n29_171# a_n129_145# a_n187_171# w_n223_109# sky130_fd_pr__pfet_g5v0d10v5 ad=0.0609 pd=0.71 as=0.1218 ps=1.42 w=0.42 l=0.5
X3 a_129_n78# a_29_n104# a_n29_n78# w_n223_n140# sky130_fd_pr__pfet_g5v0d10v5 ad=0.1218 pd=1.42 as=0.0609 ps=0.71 w=0.42 l=0.5
X4 a_n29_n78# a_n129_n104# a_n187_n78# w_n223_n140# sky130_fd_pr__pfet_g5v0d10v5 ad=0.0609 pd=0.71 as=0.1218 ps=1.42 w=0.42 l=0.5
X5 a_129_n327# a_29_n353# a_n29_n327# w_n223_n389# sky130_fd_pr__pfet_g5v0d10v5 ad=0.1218 pd=1.42 as=0.0609 ps=0.71 w=0.42 l=0.5
.ends

.subckt interpolation_s3_v2 m1_15413_13747# w_15213_13557# m1_15499_14094# m1_15657_14167#
+ sky130_fd_pr__pfet_g5v0d10v5_Z832FA_0/a_n29_171# sky130_fd_pr__pfet_g5v0d10v5_Z832FA_0/a_n29_n327#
+ m1_15657_13912# m1_15657_14412# m1_15499_14343# m1_15499_13845# m1_15749_13747#
+ li_15291_13635# sky130_fd_pr__pfet_g5v0d10v5_Z832FA_0/a_n29_n78#
Xsky130_fd_pr__pfet_g5v0d10v5_Z832FA_0 m1_15657_14412# m1_15413_13747# m1_15749_13747#
+ m1_15413_13747# w_15213_13557# w_15213_13557# sky130_fd_pr__pfet_g5v0d10v5_Z832FA_0/a_n29_n78#
+ m1_15499_14094# m1_15499_13845# m1_15657_13912# m1_15657_14167# m1_15499_14343#
+ w_15213_13557# m1_15749_13747# sky130_fd_pr__pfet_g5v0d10v5_Z832FA_0/a_n29_n327#
+ m1_15413_13747# m1_15749_13747# sky130_fd_pr__pfet_g5v0d10v5_Z832FA_0/a_n29_171#
+ sky130_fd_pr__pfet_g5v0d10v5_Z832FA
.ends

.subckt sky130_fd_pr__nfet_g5v0d10v5_CSEDJZ a_129_n73# a_n129_n99# a_n29_n73# a_n187_n73#
+ a_29_n99# VSUBS
X0 a_129_n73# a_29_n99# a_n29_n73# VSUBS sky130_fd_pr__nfet_g5v0d10v5 ad=0.1218 pd=1.42 as=0.0609 ps=0.71 w=0.42 l=0.5
X1 a_n29_n73# a_n129_n99# a_n187_n73# VSUBS sky130_fd_pr__nfet_g5v0d10v5 ad=0.0609 pd=0.71 as=0.1218 ps=1.42 w=0.42 l=0.5
.ends

.subckt interpolation_s2_v2 sky130_fd_pr__nfet_g5v0d10v5_CSEDJZ_1/a_n29_n73# m1_15110_14094#
+ m1_14952_14644# sky130_fd_pr__nfet_g5v0d10v5_CSEDJZ_2/a_n29_n73# sky130_fd_pr__nfet_g5v0d10v5_CSEDJZ_3/a_n29_n73#
+ m1_15110_14343# m1_15110_14592# m1_15110_13845# m1_15202_13747# m1_14952_13900#
+ li_14740_13627# sky130_fd_pr__nfet_g5v0d10v5_CSEDJZ_3/VSUBS m1_14866_13747# m1_14952_14395#
+ sky130_fd_pr__nfet_g5v0d10v5_CSEDJZ_0/a_n29_n73# m1_14952_14149#
Xsky130_fd_pr__nfet_g5v0d10v5_CSEDJZ_0 m1_15202_13747# m1_14952_13900# sky130_fd_pr__nfet_g5v0d10v5_CSEDJZ_0/a_n29_n73#
+ m1_14866_13747# m1_15110_13845# sky130_fd_pr__nfet_g5v0d10v5_CSEDJZ_3/VSUBS sky130_fd_pr__nfet_g5v0d10v5_CSEDJZ
Xsky130_fd_pr__nfet_g5v0d10v5_CSEDJZ_1 m1_15202_13747# m1_14952_14149# sky130_fd_pr__nfet_g5v0d10v5_CSEDJZ_1/a_n29_n73#
+ m1_14866_13747# m1_15110_14094# sky130_fd_pr__nfet_g5v0d10v5_CSEDJZ_3/VSUBS sky130_fd_pr__nfet_g5v0d10v5_CSEDJZ
Xsky130_fd_pr__nfet_g5v0d10v5_CSEDJZ_2 m1_15202_13747# m1_14952_14395# sky130_fd_pr__nfet_g5v0d10v5_CSEDJZ_2/a_n29_n73#
+ m1_14866_13747# m1_15110_14343# sky130_fd_pr__nfet_g5v0d10v5_CSEDJZ_3/VSUBS sky130_fd_pr__nfet_g5v0d10v5_CSEDJZ
Xsky130_fd_pr__nfet_g5v0d10v5_CSEDJZ_3 m1_15202_13747# m1_14952_14644# sky130_fd_pr__nfet_g5v0d10v5_CSEDJZ_3/a_n29_n73#
+ m1_14866_13747# m1_15110_14592# sky130_fd_pr__nfet_g5v0d10v5_CSEDJZ_3/VSUBS sky130_fd_pr__nfet_g5v0d10v5_CSEDJZ
.ends

.subckt interpolation_switch interpolation_s2_v2_0/m1_14866_13747# m2_282_393# interpolation_s3_v2_0/sky130_fd_pr__pfet_g5v0d10v5_Z832FA_0/a_n29_n78#
+ m2_130_451# interpolation_s3_v2_0/w_15213_13557# m2_130_949# interpolation_s2_v2_0/sky130_fd_pr__nfet_g5v0d10v5_CSEDJZ_0/a_n29_n73#
+ m2_130_700# interpolation_s3_v2_0/sky130_fd_pr__pfet_g5v0d10v5_Z832FA_0/a_n29_n327#
+ m2_130_202# interpolation_s2_v2_0/sky130_fd_pr__nfet_g5v0d10v5_CSEDJZ_1/a_n29_n73#
+ m2_282_642# interpolation_s3_v2_0/m1_15749_13747# m2_288_144# interpolation_s2_v2_0/sky130_fd_pr__nfet_g5v0d10v5_CSEDJZ_2/a_n29_n73#
+ interpolation_s2_v2_0/sky130_fd_pr__nfet_g5v0d10v5_CSEDJZ_3/a_n29_n73# interpolation_s3_v2_0/li_15291_13635#
+ interpolation_s2_v2_0/m1_15202_13747# m2_282_891# interpolation_s3_v2_0/sky130_fd_pr__pfet_g5v0d10v5_Z832FA_0/a_n29_171#
+ interpolation_s2_v2_0/li_14740_13627# interpolation_s3_v2_0/m1_15413_13747# VSUBS
Xinterpolation_s3_v2_0 interpolation_s3_v2_0/m1_15413_13747# interpolation_s3_v2_0/w_15213_13557#
+ m2_282_393# m2_130_451# interpolation_s3_v2_0/sky130_fd_pr__pfet_g5v0d10v5_Z832FA_0/a_n29_171#
+ interpolation_s3_v2_0/sky130_fd_pr__pfet_g5v0d10v5_Z832FA_0/a_n29_n327# m2_130_202#
+ m2_130_700# m2_282_642# m2_288_144# interpolation_s3_v2_0/m1_15749_13747# interpolation_s3_v2_0/li_15291_13635#
+ interpolation_s3_v2_0/sky130_fd_pr__pfet_g5v0d10v5_Z832FA_0/a_n29_n78# interpolation_s3_v2
Xinterpolation_s2_v2_0 interpolation_s2_v2_0/sky130_fd_pr__nfet_g5v0d10v5_CSEDJZ_1/a_n29_n73#
+ m2_282_393# m2_130_949# interpolation_s2_v2_0/sky130_fd_pr__nfet_g5v0d10v5_CSEDJZ_2/a_n29_n73#
+ interpolation_s2_v2_0/sky130_fd_pr__nfet_g5v0d10v5_CSEDJZ_3/a_n29_n73# m2_282_642#
+ m2_282_891# m2_288_144# interpolation_s2_v2_0/m1_15202_13747# m2_130_202# interpolation_s2_v2_0/li_14740_13627#
+ VSUBS interpolation_s2_v2_0/m1_14866_13747# m2_130_700# interpolation_s2_v2_0/sky130_fd_pr__nfet_g5v0d10v5_CSEDJZ_0/a_n29_n73#
+ m2_130_451# interpolation_s2_v2
.ends

.subckt seg_sel_nmos sky130_fd_pr__nfet_g5v0d10v5_CSEDJZ_1/a_n29_n73# sky130_fd_pr__nfet_g5v0d10v5_CSEDJZ_3/a_129_n73#
+ li_n882_n121# sky130_fd_pr__nfet_g5v0d10v5_CSEDJZ_2/a_n29_n73# sky130_fd_pr__nfet_g5v0d10v5_CSEDJZ_4/a_129_n73#
+ sky130_fd_pr__nfet_g5v0d10v5_CSEDJZ_3/a_n29_n73# m1_n658_138# sky130_fd_pr__nfet_g5v0d10v5_CSEDJZ_4/a_n29_n73#
+ m1_n500_138# sky130_fd_pr__nfet_g5v0d10v5_CSEDJZ_4/VSUBS m1_n756_n1# sky130_fd_pr__nfet_g5v0d10v5_CSEDJZ_0/a_129_n73#
+ sky130_fd_pr__nfet_g5v0d10v5_CSEDJZ_1/a_129_n73# sky130_fd_pr__nfet_g5v0d10v5_CSEDJZ_0/a_n29_n73#
+ sky130_fd_pr__nfet_g5v0d10v5_CSEDJZ_2/a_129_n73#
Xsky130_fd_pr__nfet_g5v0d10v5_CSEDJZ_0 sky130_fd_pr__nfet_g5v0d10v5_CSEDJZ_0/a_129_n73#
+ m1_n658_138# sky130_fd_pr__nfet_g5v0d10v5_CSEDJZ_0/a_n29_n73# m1_n756_n1# m1_n500_138#
+ sky130_fd_pr__nfet_g5v0d10v5_CSEDJZ_4/VSUBS sky130_fd_pr__nfet_g5v0d10v5_CSEDJZ
Xsky130_fd_pr__nfet_g5v0d10v5_CSEDJZ_1 sky130_fd_pr__nfet_g5v0d10v5_CSEDJZ_1/a_129_n73#
+ m1_n658_138# sky130_fd_pr__nfet_g5v0d10v5_CSEDJZ_1/a_n29_n73# m1_n756_n1# m1_n500_138#
+ sky130_fd_pr__nfet_g5v0d10v5_CSEDJZ_4/VSUBS sky130_fd_pr__nfet_g5v0d10v5_CSEDJZ
Xsky130_fd_pr__nfet_g5v0d10v5_CSEDJZ_2 sky130_fd_pr__nfet_g5v0d10v5_CSEDJZ_2/a_129_n73#
+ m1_n658_138# sky130_fd_pr__nfet_g5v0d10v5_CSEDJZ_2/a_n29_n73# m1_n756_n1# m1_n500_138#
+ sky130_fd_pr__nfet_g5v0d10v5_CSEDJZ_4/VSUBS sky130_fd_pr__nfet_g5v0d10v5_CSEDJZ
Xsky130_fd_pr__nfet_g5v0d10v5_CSEDJZ_3 sky130_fd_pr__nfet_g5v0d10v5_CSEDJZ_3/a_129_n73#
+ m1_n658_138# sky130_fd_pr__nfet_g5v0d10v5_CSEDJZ_3/a_n29_n73# m1_n756_n1# m1_n500_138#
+ sky130_fd_pr__nfet_g5v0d10v5_CSEDJZ_4/VSUBS sky130_fd_pr__nfet_g5v0d10v5_CSEDJZ
Xsky130_fd_pr__nfet_g5v0d10v5_CSEDJZ_4 sky130_fd_pr__nfet_g5v0d10v5_CSEDJZ_4/a_129_n73#
+ m1_n658_138# sky130_fd_pr__nfet_g5v0d10v5_CSEDJZ_4/a_n29_n73# m1_n756_n1# m1_n500_138#
+ sky130_fd_pr__nfet_g5v0d10v5_CSEDJZ_4/VSUBS sky130_fd_pr__nfet_g5v0d10v5_CSEDJZ
.ends

.subckt top_final_switch b[0] b[1] b[2] b[3] bb[0] bb[1] bb[2] bb[3] SH[1] SH[2] SH[3]
+ SH[4] VS1 VL2 VH2 VL3 VH3 VS4 VOUT[0] VOUT[1] VOUT[2] VOUT[3] VOUT[4] VDDH GND
Xseg_sel_pmos_0 m1_16146_13540# VOUT[3] m1_16146_13789# VOUT[1] VOUT[0] VOUT[4] SH[4]
+ m1_16146_13291# VOUT[2] VL3 VDDH SH[3] VL3 VDDH VS4 seg_sel_pmos
Xinterpolation_switch_0 VH2 bb[1] m1_16146_13540# b[1] VDDH b[3] m1_14915_13540# b[2]
+ m1_16146_13291# b[0] m1_14915_13789# bb[2] VL3 bb[0] m1_14915_14038# m1_14915_14287#
+ VDDH VL2 bb[3] m1_16146_13789# GND VH3 GND interpolation_switch
Xseg_sel_nmos_0 VOUT[1] m1_14915_14038# GND VOUT[2] m1_14915_14287# VOUT[3] SH[1]
+ VOUT[4] SH[2] GND VS1 VL2 m1_14915_13540# VOUT[0] m1_14915_13789# seg_sel_nmos
.ends

.subckt sky130_fd_pr__cap_mim_m3_1_UWHR8Z c1_n3382_n1280# c1_n3382_880# c1_n2370_n560#
+ c1_n1358_1600# m3_626_n1320# m3_n1398_n600# c1_n346_n2000# c1_n2370_880# c1_2690_n1280#
+ c1_n346_160# m3_n3422_120# c1_n346_n560# m3_n386_1560# c1_1678_n560# c1_n3382_n560#
+ c1_666_160# c1_n1358_880# m3_n2410_120# m3_n386_840# c1_666_n560# m3_n386_n600#
+ c1_n3382_160# c1_2690_880# m3_n386_n2040# m3_2650_1560# c1_n1358_n2000# c1_666_n1280#
+ m3_1638_n1320# m3_n2410_n1320# c1_n1358_n560# c1_n2370_160# m3_n1398_n1320# m3_2650_840#
+ m3_2650_n600# c1_n346_n1280# c1_1678_880# m3_n3422_n1320# c1_n2370_n2000# m3_626_n2040#
+ m3_2650_n1320# m3_n386_120# m3_1638_840# c1_n1358_160# c1_1678_n2000# c1_2690_160#
+ c1_2690_1600# m3_n1398_840# c1_n3382_n2000# m3_626_840# m3_1638_1560# m3_626_1560#
+ m3_2650_120# m3_n2410_1560# c1_n1358_n1280# c1_1678_160# c1_n2370_1600# m3_1638_n2040#
+ m3_n2410_n2040# m3_1638_n600# c1_2690_n2000# m3_626_n600# m3_n2410_n600# m3_1638_120#
+ m3_n1398_n2040# c1_n346_880# c1_n346_1600# m3_n3422_840# m3_n3422_1560# c1_n2370_n1280#
+ c1_2690_n560# m3_n3422_n2040# m3_n386_n1320# m3_n1398_120# c1_1678_1600# c1_666_1600#
+ c1_n3382_1600# m3_2650_n2040# c1_666_n2000# c1_1678_n1280# c1_666_880# m3_n3422_n600#
+ m3_626_120# m3_n2410_840# m3_n1398_1560#
X0 c1_666_1600# m3_626_1560# sky130_fd_pr__cap_mim_m3_1 l=2 w=2
X1 c1_2690_880# m3_2650_840# sky130_fd_pr__cap_mim_m3_1 l=2 w=2
X2 c1_666_n560# m3_626_n600# sky130_fd_pr__cap_mim_m3_1 l=2 w=2
X3 c1_n346_1600# m3_n386_1560# sky130_fd_pr__cap_mim_m3_1 l=2 w=2
X4 c1_1678_1600# m3_1638_1560# sky130_fd_pr__cap_mim_m3_1 l=2 w=2
X5 c1_n346_n560# m3_n386_n600# sky130_fd_pr__cap_mim_m3_1 l=2 w=2
X6 c1_1678_n560# m3_1638_n600# sky130_fd_pr__cap_mim_m3_1 l=2 w=2
X7 c1_n1358_160# m3_n1398_120# sky130_fd_pr__cap_mim_m3_1 l=2 w=2
X8 c1_n346_n1280# m3_n386_n1320# sky130_fd_pr__cap_mim_m3_1 l=2 w=2
X9 c1_n2370_160# m3_n2410_120# sky130_fd_pr__cap_mim_m3_1 l=2 w=2
X10 c1_n1358_880# m3_n1398_840# sky130_fd_pr__cap_mim_m3_1 l=2 w=2
X11 c1_n346_n2000# m3_n386_n2040# sky130_fd_pr__cap_mim_m3_1 l=2 w=2
X12 c1_n3382_1600# m3_n3422_1560# sky130_fd_pr__cap_mim_m3_1 l=2 w=2
X13 c1_n1358_1600# m3_n1398_1560# sky130_fd_pr__cap_mim_m3_1 l=2 w=2
X14 c1_n346_160# m3_n386_120# sky130_fd_pr__cap_mim_m3_1 l=2 w=2
X15 c1_n1358_n560# m3_n1398_n600# sky130_fd_pr__cap_mim_m3_1 l=2 w=2
X16 c1_n3382_n1280# m3_n3422_n1320# sky130_fd_pr__cap_mim_m3_1 l=2 w=2
X17 c1_n2370_880# m3_n2410_840# sky130_fd_pr__cap_mim_m3_1 l=2 w=2
X18 c1_n3382_n560# m3_n3422_n600# sky130_fd_pr__cap_mim_m3_1 l=2 w=2
X19 c1_n2370_n1280# m3_n2410_n1320# sky130_fd_pr__cap_mim_m3_1 l=2 w=2
X20 c1_n2370_1600# m3_n2410_1560# sky130_fd_pr__cap_mim_m3_1 l=2 w=2
X21 c1_n346_880# m3_n386_840# sky130_fd_pr__cap_mim_m3_1 l=2 w=2
X22 c1_n2370_n560# m3_n2410_n600# sky130_fd_pr__cap_mim_m3_1 l=2 w=2
X23 c1_666_n1280# m3_626_n1320# sky130_fd_pr__cap_mim_m3_1 l=2 w=2
X24 c1_n3382_n2000# m3_n3422_n2040# sky130_fd_pr__cap_mim_m3_1 l=2 w=2
X25 c1_n2370_n2000# m3_n2410_n2040# sky130_fd_pr__cap_mim_m3_1 l=2 w=2
X26 c1_n3382_160# m3_n3422_120# sky130_fd_pr__cap_mim_m3_1 l=2 w=2
X27 c1_1678_160# m3_1638_120# sky130_fd_pr__cap_mim_m3_1 l=2 w=2
X28 c1_666_n2000# m3_626_n2040# sky130_fd_pr__cap_mim_m3_1 l=2 w=2
X29 c1_1678_880# m3_1638_840# sky130_fd_pr__cap_mim_m3_1 l=2 w=2
X30 c1_n3382_880# m3_n3422_840# sky130_fd_pr__cap_mim_m3_1 l=2 w=2
X31 c1_n1358_n1280# m3_n1398_n1320# sky130_fd_pr__cap_mim_m3_1 l=2 w=2
X32 c1_666_160# m3_626_120# sky130_fd_pr__cap_mim_m3_1 l=2 w=2
X33 c1_2690_n1280# m3_2650_n1320# sky130_fd_pr__cap_mim_m3_1 l=2 w=2
X34 c1_1678_n1280# m3_1638_n1320# sky130_fd_pr__cap_mim_m3_1 l=2 w=2
X35 c1_n1358_n2000# m3_n1398_n2040# sky130_fd_pr__cap_mim_m3_1 l=2 w=2
X36 c1_2690_160# m3_2650_120# sky130_fd_pr__cap_mim_m3_1 l=2 w=2
X37 c1_666_880# m3_626_840# sky130_fd_pr__cap_mim_m3_1 l=2 w=2
X38 c1_2690_1600# m3_2650_1560# sky130_fd_pr__cap_mim_m3_1 l=2 w=2
X39 c1_2690_n2000# m3_2650_n2040# sky130_fd_pr__cap_mim_m3_1 l=2 w=2
X40 c1_2690_n560# m3_2650_n600# sky130_fd_pr__cap_mim_m3_1 l=2 w=2
X41 c1_1678_n2000# m3_1638_n2040# sky130_fd_pr__cap_mim_m3_1 l=2 w=2
.ends

.subckt opa_cap_cell m4_4863_n2668# m4_5875_n2668# m4_6887_n2668# m3_3319_n2356# m4_2839_n2668#
+ m4_3851_n2668# m3_2838_164#
Xsky130_fd_pr__cap_mim_m3_1_UWHR8Z_0 m3_2838_164# m3_2838_164# m4_2839_n2668# m3_2838_164#
+ m3_3319_n2356# m3_3319_n2356# m3_2838_164# m4_2839_n2668# m3_2838_164# m4_4863_n2668#
+ m3_2838_164# m4_4863_n2668# m3_2838_164# m4_6887_n2668# m3_2838_164# m4_5875_n2668#
+ m4_3851_n2668# m3_3319_n2356# m3_3319_n2356# m4_5875_n2668# m3_3319_n2356# m3_2838_164#
+ m3_2838_164# m3_2838_164# m3_2838_164# m3_2838_164# m4_5875_n2668# m3_3319_n2356#
+ m3_3319_n2356# m4_3851_n2668# m4_2839_n2668# m3_3319_n2356# m3_2838_164# m3_2838_164#
+ m4_4863_n2668# m4_6887_n2668# m3_2838_164# m3_2838_164# m3_2838_164# m3_2838_164#
+ m3_3319_n2356# m3_3319_n2356# m4_3851_n2668# m3_2838_164# m3_2838_164# m3_2838_164#
+ m3_3319_n2356# m3_2838_164# m3_3319_n2356# m3_2838_164# m3_2838_164# m3_2838_164#
+ m3_2838_164# m4_3851_n2668# m4_6887_n2668# m3_2838_164# m3_2838_164# m3_2838_164#
+ m3_3319_n2356# m3_2838_164# m3_3319_n2356# m3_3319_n2356# m3_3319_n2356# m3_2838_164#
+ m4_4863_n2668# m3_2838_164# m3_2838_164# m3_2838_164# m4_2839_n2668# m3_2838_164#
+ m3_2838_164# m3_3319_n2356# m3_3319_n2356# m3_2838_164# m3_2838_164# m3_2838_164#
+ m3_2838_164# m3_2838_164# m4_6887_n2668# m4_5875_n2668# m3_2838_164# m3_3319_n2356#
+ m3_3319_n2356# m3_2838_164# sky130_fd_pr__cap_mim_m3_1_UWHR8Z
.ends

.subckt opa_cap opa_cap_cell_1/m3_2838_164# m3_2268_9110# m3_n3804_8390# m3_820_7670#
Xopa_cap_cell_0 m3_2268_9110# m3_2268_9110# m3_2268_9110# m3_820_7670# m3_2268_9110#
+ m3_2268_9110# opa_cap_cell_1/m3_2838_164# opa_cap_cell
Xopa_cap_cell_1 m3_n3804_8390# m3_n3804_8390# m3_n3804_8390# m3_820_7670# m3_n3804_8390#
+ m3_n3804_8390# opa_cap_cell_1/m3_2838_164# opa_cap_cell
.ends

.subckt sky130_fd_pr__pfet_g5v0d10v5_XEEY48 a_229_n516# a_29_n542# w_n323_n578# a_n29_n516#
+ a_n229_n542# a_n287_n516#
X0 a_229_n516# a_29_n542# a_n29_n516# w_n323_n578# sky130_fd_pr__pfet_g5v0d10v5 ad=1.392 pd=10.18 as=0.696 ps=5.09 w=4.8 l=1
X1 a_n29_n516# a_n229_n542# a_n287_n516# w_n323_n578# sky130_fd_pr__pfet_g5v0d10v5 ad=0.696 pd=5.09 as=1.392 ps=10.18 w=4.8 l=1
.ends

.subckt fcm_bias_pcell_2 li_n175_n29# m1_218_1060# a_n188_n29# m1_n198_n29# m1_n9_n29#
+ sky130_fd_pr__pfet_g5v0d10v5_XEEY48_0/w_n323_n578#
Xsky130_fd_pr__pfet_g5v0d10v5_XEEY48_0 m1_n9_n29# m1_n9_n29# sky130_fd_pr__pfet_g5v0d10v5_XEEY48_0/w_n323_n578#
+ m1_218_1060# m1_218_1060# m1_n198_n29# sky130_fd_pr__pfet_g5v0d10v5_XEEY48
.ends

.subckt fcm_bias_pcell VB1 w_155_n1155#
Xfcm_bias_pcell_2_1 w_155_n1155# m1_645_0# w_155_n1155# w_155_n1155# VB1 w_155_n1155#
+ fcm_bias_pcell_2
Xfcm_bias_pcell_2_0 w_155_n1155# m1_645_0# w_155_n1155# w_155_n1155# VB1 w_155_n1155#
+ fcm_bias_pcell_2
.ends

.subckt sky130_fd_pr__nfet_g5v0d10v5_UKZDTQ a_n100_n117# a_100_n91# a_n158_n91# VSUBS
X0 a_100_n91# a_n100_n117# a_n158_n91# VSUBS sky130_fd_pr__nfet_g5v0d10v5 ad=0.174 pd=1.78 as=0.174 ps=1.78 w=0.6 l=1
.ends

.subckt sky130_fd_pr__nfet_g5v0d10v5_QBWG6Y a_n2058_n91# a_n2000_n117# a_2000_n91#
+ VSUBS
X0 a_2000_n91# a_n2000_n117# a_n2058_n91# VSUBS sky130_fd_pr__nfet_g5v0d10v5 ad=0.174 pd=1.78 as=0.174 ps=1.78 w=0.6 l=20
.ends

.subckt cm_ncell3_2 m1_7247_190# sky130_fd_pr__nfet_g5v0d10v5_QBWG6Y_1/a_n2058_n91#
+ sky130_fd_pr__nfet_g5v0d10v5_UKZDTQ_1/VSUBS m1_n502_n60# li_n489_n60# sky130_fd_pr__nfet_g5v0d10v5_QBWG6Y_0/a_2000_n91#
+ m1_4078_58#
Xsky130_fd_pr__nfet_g5v0d10v5_UKZDTQ_0 m1_n502_n60# m1_n502_n60# m1_n502_n60# sky130_fd_pr__nfet_g5v0d10v5_UKZDTQ_1/VSUBS
+ sky130_fd_pr__nfet_g5v0d10v5_UKZDTQ
Xsky130_fd_pr__nfet_g5v0d10v5_UKZDTQ_1 m1_n502_n60# m1_n502_n60# m1_n502_n60# sky130_fd_pr__nfet_g5v0d10v5_UKZDTQ_1/VSUBS
+ sky130_fd_pr__nfet_g5v0d10v5_UKZDTQ
Xsky130_fd_pr__nfet_g5v0d10v5_QBWG6Y_0 m1_4078_58# m1_7247_190# sky130_fd_pr__nfet_g5v0d10v5_QBWG6Y_0/a_2000_n91#
+ sky130_fd_pr__nfet_g5v0d10v5_UKZDTQ_1/VSUBS sky130_fd_pr__nfet_g5v0d10v5_QBWG6Y
Xsky130_fd_pr__nfet_g5v0d10v5_QBWG6Y_1 sky130_fd_pr__nfet_g5v0d10v5_QBWG6Y_1/a_n2058_n91#
+ m1_7247_190# m1_4078_58# sky130_fd_pr__nfet_g5v0d10v5_UKZDTQ_1/VSUBS sky130_fd_pr__nfet_g5v0d10v5_QBWG6Y
.ends

.subckt cm_ncell3 VTAIL1 VTAIL2 DRAIN GNDA
Xcm_ncell3_2_0 DRAIN VTAIL1 GNDA GNDA GNDA DRAIN VTAIL2 cm_ncell3_2
Xcm_ncell3_2_1 DRAIN DRAIN GNDA GNDA GNDA VTAIL1 VTAIL2 cm_ncell3_2
.ends

.subckt sky130_fd_pr__pfet_g5v0d10v5_V8EYZH a_n545_n336# a_n29_n336# a_n229_n362#
+ a_487_n336# a_287_n362# w_n581_n398# a_n287_n336# a_n487_n362# a_229_n336# a_29_n362#
X0 a_229_n336# a_29_n362# a_n29_n336# w_n581_n398# sky130_fd_pr__pfet_g5v0d10v5 ad=0.435 pd=3.29 as=0.435 ps=3.29 w=3 l=1
X1 a_n29_n336# a_n229_n362# a_n287_n336# w_n581_n398# sky130_fd_pr__pfet_g5v0d10v5 ad=0.435 pd=3.29 as=0.435 ps=3.29 w=3 l=1
X2 a_n287_n336# a_n487_n362# a_n545_n336# w_n581_n398# sky130_fd_pr__pfet_g5v0d10v5 ad=0.435 pd=3.29 as=0.87 ps=6.58 w=3 l=1
X3 a_487_n336# a_287_n362# a_229_n336# w_n581_n398# sky130_fd_pr__pfet_g5v0d10v5 ad=0.87 pd=6.58 as=0.435 ps=3.29 w=3 l=1
.ends

.subckt dp_pmos_4 li_n476_79# sky130_fd_pr__pfet_g5v0d10v5_V8EYZH_0/a_n545_n336# m1_n51_765#
+ m1_207_705# m1_n303_79# m1_n391_79# a_n489_79# sky130_fd_pr__pfet_g5v0d10v5_V8EYZH_0/a_487_n336#
+ sky130_fd_pr__pfet_g5v0d10v5_V8EYZH_0/a_n29_n336# sky130_fd_pr__pfet_g5v0d10v5_V8EYZH_0/w_n581_n398#
+ m1_117_161#
Xsky130_fd_pr__pfet_g5v0d10v5_V8EYZH_0 sky130_fd_pr__pfet_g5v0d10v5_V8EYZH_0/a_n545_n336#
+ sky130_fd_pr__pfet_g5v0d10v5_V8EYZH_0/a_n29_n336# m1_207_705# sky130_fd_pr__pfet_g5v0d10v5_V8EYZH_0/a_487_n336#
+ m1_n51_765# sky130_fd_pr__pfet_g5v0d10v5_V8EYZH_0/w_n581_n398# m1_117_161# m1_n51_765#
+ m1_117_161# m1_207_705# sky130_fd_pr__pfet_g5v0d10v5_V8EYZH
.ends

.subckt dp_pmos I_OPA I_OPB I_HEAD N_IN P_IN VPB
Xdp_pmos_4_0 VPB I_OPA P_IN N_IN N_IN P_IN VPB I_OPA I_OPB VPB I_HEAD dp_pmos_4
Xdp_pmos_4_1 VPB I_OPB N_IN P_IN N_IN P_IN VPB I_OPB I_OPA VPB I_HEAD dp_pmos_4
.ends

.subckt dp_pmos_top dp_pmos_5/P_IN dp_pmos_2/I_HEAD dp_pmos_1/I_HEAD dp_pmos_3/P_IN
+ dp_pmos_0/P_IN dp_pmos_0/I_HEAD dp_pmos_5/I_OPB dp_pmos_5/I_OPA dp_pmos_5/I_HEAD
+ dp_pmos_5/N_IN dp_pmos_5/VPB dp_pmos_1/P_IN dp_pmos_2/P_IN dp_pmos_3/I_HEAD
Xdp_pmos_0 dp_pmos_5/I_OPA dp_pmos_5/I_OPB dp_pmos_0/I_HEAD dp_pmos_5/N_IN dp_pmos_0/P_IN
+ dp_pmos_5/VPB dp_pmos
Xdp_pmos_1 dp_pmos_5/I_OPA dp_pmos_5/I_OPB dp_pmos_1/I_HEAD dp_pmos_5/N_IN dp_pmos_1/P_IN
+ dp_pmos_5/VPB dp_pmos
Xdp_pmos_2 dp_pmos_5/I_OPA dp_pmos_5/I_OPB dp_pmos_2/I_HEAD dp_pmos_5/N_IN dp_pmos_2/P_IN
+ dp_pmos_5/VPB dp_pmos
Xdp_pmos_3 dp_pmos_5/I_OPA dp_pmos_5/I_OPB dp_pmos_3/I_HEAD dp_pmos_5/N_IN dp_pmos_3/P_IN
+ dp_pmos_5/VPB dp_pmos
Xdp_pmos_5 dp_pmos_5/I_OPA dp_pmos_5/I_OPB dp_pmos_5/I_HEAD dp_pmos_5/N_IN dp_pmos_5/P_IN
+ dp_pmos_5/VPB dp_pmos
.ends

.subckt sky130_fd_pr__nfet_g5v0d10v5_DJNVTV a_n287_n131# a_29_n157# a_229_n131# a_n545_n131#
+ a_n229_n157# a_287_n157# a_487_n131# a_n29_n131# a_n487_n157# VSUBS
X0 a_n29_n131# a_n229_n157# a_n287_n131# VSUBS sky130_fd_pr__nfet_g5v0d10v5 ad=0.145 pd=1.29 as=0.145 ps=1.29 w=1 l=1
X1 a_229_n131# a_29_n157# a_n29_n131# VSUBS sky130_fd_pr__nfet_g5v0d10v5 ad=0.145 pd=1.29 as=0.145 ps=1.29 w=1 l=1
X2 a_n287_n131# a_n487_n157# a_n545_n131# VSUBS sky130_fd_pr__nfet_g5v0d10v5 ad=0.145 pd=1.29 as=0.29 ps=2.58 w=1 l=1
X3 a_487_n131# a_287_n157# a_229_n131# VSUBS sky130_fd_pr__nfet_g5v0d10v5 ad=0.29 pd=2.58 as=0.145 ps=1.29 w=1 l=1
.ends

.subckt dp_nmos_4 li_n476_369# m1_n51_765# m1_n391_369# sky130_fd_pr__nfet_g5v0d10v5_DJNVTV_0/VSUBS
+ m1_207_705# sky130_fd_pr__nfet_g5v0d10v5_DJNVTV_0/a_n29_n131# sky130_fd_pr__nfet_g5v0d10v5_DJNVTV_0/a_487_n131#
+ m1_n303_369# m1_117_531# sky130_fd_pr__nfet_g5v0d10v5_DJNVTV_0/a_n545_n131#
Xsky130_fd_pr__nfet_g5v0d10v5_DJNVTV_0 m1_117_531# m1_207_705# m1_117_531# sky130_fd_pr__nfet_g5v0d10v5_DJNVTV_0/a_n545_n131#
+ m1_207_705# m1_n51_765# sky130_fd_pr__nfet_g5v0d10v5_DJNVTV_0/a_487_n131# sky130_fd_pr__nfet_g5v0d10v5_DJNVTV_0/a_n29_n131#
+ m1_n51_765# sky130_fd_pr__nfet_g5v0d10v5_DJNVTV_0/VSUBS sky130_fd_pr__nfet_g5v0d10v5_DJNVTV
.ends

.subckt dp_nmos I_ONA m2_865_n317# m1_99_335# m1_187_247# I_ONB cross_pair_1/VSUBS
+ a_74_n664#
Xdp_nmos_4_0 cross_pair_1/VSUBS m1_99_335# m1_99_335# cross_pair_1/VSUBS m1_187_247#
+ I_ONB I_ONA m1_187_247# m2_865_n317# I_ONA dp_nmos_4
Xdp_nmos_4_1 cross_pair_1/VSUBS m1_187_247# m1_99_335# cross_pair_1/VSUBS m1_99_335#
+ I_ONA I_ONB m1_187_247# m2_865_n317# I_ONB dp_nmos_4
.ends

.subckt dp_nmos_top dp_nmos_0/m1_99_335# dp_nmos_5/m2_865_n317# dp_nmos_0/m2_865_n317#
+ dp_nmos_5/I_ONB dp_nmos_1/m1_99_335# dp_nmos_5/I_ONA dp_nmos_5/m1_99_335# dp_nmos_3/m2_865_n317#
+ dp_nmos_2/m1_99_335# m2_8314_956# dp_nmos_0/a_74_n664# dp_nmos_1/a_74_n664# dp_nmos_2/m2_865_n317#
+ dp_nmos_2/a_74_n664# dp_nmos_3/a_74_n664# dp_nmos_3/m1_99_335# VSUBS dp_nmos_1/m2_865_n317#
Xdp_nmos_0 dp_nmos_5/I_ONA dp_nmos_0/m2_865_n317# dp_nmos_0/m1_99_335# m2_8314_956#
+ dp_nmos_5/I_ONB VSUBS dp_nmos_0/a_74_n664# dp_nmos
Xdp_nmos_1 dp_nmos_5/I_ONA dp_nmos_1/m2_865_n317# dp_nmos_1/m1_99_335# m2_8314_956#
+ dp_nmos_5/I_ONB VSUBS dp_nmos_1/a_74_n664# dp_nmos
Xdp_nmos_2 dp_nmos_5/I_ONA dp_nmos_2/m2_865_n317# dp_nmos_2/m1_99_335# m2_8314_956#
+ dp_nmos_5/I_ONB VSUBS dp_nmos_2/a_74_n664# dp_nmos
Xdp_nmos_3 dp_nmos_5/I_ONA dp_nmos_3/m2_865_n317# dp_nmos_3/m1_99_335# m2_8314_956#
+ dp_nmos_5/I_ONB VSUBS dp_nmos_3/a_74_n664# dp_nmos
Xdp_nmos_5 dp_nmos_5/I_ONA dp_nmos_5/m2_865_n317# dp_nmos_5/m1_99_335# m2_8314_956#
+ dp_nmos_5/I_ONB VSUBS dp_nmos_5/a_74_n664# dp_nmos
.ends

.subckt opa_diffpairs dp_pmos_top_0/dp_pmos_5/I_OPB dp_pmos_top_0/dp_pmos_5/I_OPA
+ dp_pmos_top_0/dp_pmos_0/P_IN dp_nmos_top_0/dp_nmos_0/m2_865_n317# dp_nmos_top_0/dp_nmos_5/m2_865_n317#
+ dp_nmos_top_0/dp_nmos_0/a_74_n664# dp_pmos_top_0/dp_pmos_0/I_HEAD dp_nmos_top_0/dp_nmos_5/I_ONB
+ dp_nmos_top_0/dp_nmos_1/a_74_n664# dp_nmos_top_0/dp_nmos_5/I_ONA dp_pmos_top_0/dp_pmos_3/P_IN
+ dp_pmos_top_0/dp_pmos_5/I_HEAD dp_nmos_top_0/dp_nmos_2/a_74_n664# dp_nmos_top_0/dp_nmos_3/a_74_n664#
+ dp_nmos_top_0/dp_nmos_3/m2_865_n317# dp_pmos_top_0/dp_pmos_3/I_HEAD dp_pmos_top_0/dp_pmos_1/P_IN
+ dp_nmos_top_0/dp_nmos_2/m2_865_n317# dp_pmos_top_0/dp_pmos_5/P_IN dp_pmos_top_0/dp_pmos_2/P_IN
+ dp_pmos_top_0/dp_pmos_2/I_HEAD dp_pmos_top_0/dp_pmos_5/N_IN dp_nmos_top_0/dp_nmos_1/m2_865_n317#
+ dp_pmos_top_0/dp_pmos_5/VPB VSUBS dp_pmos_top_0/dp_pmos_1/I_HEAD
Xdp_pmos_top_0 dp_pmos_top_0/dp_pmos_5/P_IN dp_pmos_top_0/dp_pmos_2/I_HEAD dp_pmos_top_0/dp_pmos_1/I_HEAD
+ dp_pmos_top_0/dp_pmos_3/P_IN dp_pmos_top_0/dp_pmos_0/P_IN dp_pmos_top_0/dp_pmos_0/I_HEAD
+ dp_pmos_top_0/dp_pmos_5/I_OPB dp_pmos_top_0/dp_pmos_5/I_OPA dp_pmos_top_0/dp_pmos_5/I_HEAD
+ dp_pmos_top_0/dp_pmos_5/N_IN dp_pmos_top_0/dp_pmos_5/VPB dp_pmos_top_0/dp_pmos_1/P_IN
+ dp_pmos_top_0/dp_pmos_2/P_IN dp_pmos_top_0/dp_pmos_3/I_HEAD dp_pmos_top
Xdp_nmos_top_0 dp_pmos_top_0/dp_pmos_0/P_IN dp_nmos_top_0/dp_nmos_5/m2_865_n317# dp_nmos_top_0/dp_nmos_0/m2_865_n317#
+ dp_nmos_top_0/dp_nmos_5/I_ONB dp_pmos_top_0/dp_pmos_1/P_IN dp_nmos_top_0/dp_nmos_5/I_ONA
+ dp_pmos_top_0/dp_pmos_5/P_IN dp_nmos_top_0/dp_nmos_3/m2_865_n317# dp_pmos_top_0/dp_pmos_2/P_IN
+ dp_pmos_top_0/dp_pmos_5/N_IN dp_nmos_top_0/dp_nmos_0/a_74_n664# dp_nmos_top_0/dp_nmos_1/a_74_n664#
+ dp_nmos_top_0/dp_nmos_2/m2_865_n317# dp_nmos_top_0/dp_nmos_2/a_74_n664# dp_nmos_top_0/dp_nmos_3/a_74_n664#
+ dp_pmos_top_0/dp_pmos_3/P_IN VSUBS dp_nmos_top_0/dp_nmos_1/m2_865_n317# dp_nmos_top
.ends

.subckt sky130_fd_pr__nfet_g5v0d10v5_QKV39N a_n100_n117# a_100_n91# a_n158_n91# VSUBS
X0 a_100_n91# a_n100_n117# a_n158_n91# VSUBS sky130_fd_pr__nfet_g5v0d10v5 ad=0.174 pd=1.78 as=0.174 ps=1.78 w=0.6 l=1
.ends

.subckt cm_ncell_1 sky130_fd_pr__nfet_g5v0d10v5_QKV39N_0/a_n158_n91# sky130_fd_pr__nfet_g5v0d10v5_QKV39N_0/a_100_n91#
+ m1_69_157# VSUBS
Xsky130_fd_pr__nfet_g5v0d10v5_QKV39N_0 m1_69_157# sky130_fd_pr__nfet_g5v0d10v5_QKV39N_0/a_100_n91#
+ sky130_fd_pr__nfet_g5v0d10v5_QKV39N_0/a_n158_n91# VSUBS sky130_fd_pr__nfet_g5v0d10v5_QKV39N
.ends

.subckt cm_ncell_2 cm_ncell_1_0/sky130_fd_pr__nfet_g5v0d10v5_QKV39N_0/a_100_n91# cm_ncell_1_0/sky130_fd_pr__nfet_g5v0d10v5_QKV39N_0/a_n158_n91#
+ cm_ncell_1_1/sky130_fd_pr__nfet_g5v0d10v5_QKV39N_0/a_100_n91# m2_n34_153# cm_ncell_1_1/sky130_fd_pr__nfet_g5v0d10v5_QKV39N_0/a_n158_n91#
+ VSUBS
Xcm_ncell_1_0 cm_ncell_1_0/sky130_fd_pr__nfet_g5v0d10v5_QKV39N_0/a_n158_n91# cm_ncell_1_0/sky130_fd_pr__nfet_g5v0d10v5_QKV39N_0/a_100_n91#
+ m2_n34_153# VSUBS cm_ncell_1
Xcm_ncell_1_1 cm_ncell_1_1/sky130_fd_pr__nfet_g5v0d10v5_QKV39N_0/a_n158_n91# cm_ncell_1_1/sky130_fd_pr__nfet_g5v0d10v5_QKV39N_0/a_100_n91#
+ m2_n34_153# VSUBS cm_ncell_1
.ends

.subckt cm_ncell_4 cm_ncell_2_0/cm_ncell_1_1/sky130_fd_pr__nfet_g5v0d10v5_QKV39N_0/a_n158_n91#
+ cm_ncell_2_1/cm_ncell_1_1/sky130_fd_pr__nfet_g5v0d10v5_QKV39N_0/a_n158_n91# cm_ncell_2_1/cm_ncell_1_0/sky130_fd_pr__nfet_g5v0d10v5_QKV39N_0/a_100_n91#
+ cm_ncell_2_0/cm_ncell_1_1/sky130_fd_pr__nfet_g5v0d10v5_QKV39N_0/a_100_n91# cm_ncell_2_0/cm_ncell_1_0/sky130_fd_pr__nfet_g5v0d10v5_QKV39N_0/a_n158_n91#
+ cm_ncell_2_1/cm_ncell_1_0/sky130_fd_pr__nfet_g5v0d10v5_QKV39N_0/a_n158_n91# cm_ncell_2_0/cm_ncell_1_0/sky130_fd_pr__nfet_g5v0d10v5_QKV39N_0/a_100_n91#
+ cm_ncell_2_1/m2_n34_153# cm_ncell_2_1/cm_ncell_1_1/sky130_fd_pr__nfet_g5v0d10v5_QKV39N_0/a_100_n91#
+ VSUBS
Xcm_ncell_2_0 cm_ncell_2_0/cm_ncell_1_0/sky130_fd_pr__nfet_g5v0d10v5_QKV39N_0/a_100_n91#
+ cm_ncell_2_0/cm_ncell_1_0/sky130_fd_pr__nfet_g5v0d10v5_QKV39N_0/a_n158_n91# cm_ncell_2_0/cm_ncell_1_1/sky130_fd_pr__nfet_g5v0d10v5_QKV39N_0/a_100_n91#
+ cm_ncell_2_1/m2_n34_153# cm_ncell_2_0/cm_ncell_1_1/sky130_fd_pr__nfet_g5v0d10v5_QKV39N_0/a_n158_n91#
+ VSUBS cm_ncell_2
Xcm_ncell_2_1 cm_ncell_2_1/cm_ncell_1_0/sky130_fd_pr__nfet_g5v0d10v5_QKV39N_0/a_100_n91#
+ cm_ncell_2_1/cm_ncell_1_0/sky130_fd_pr__nfet_g5v0d10v5_QKV39N_0/a_n158_n91# cm_ncell_2_1/cm_ncell_1_1/sky130_fd_pr__nfet_g5v0d10v5_QKV39N_0/a_100_n91#
+ cm_ncell_2_1/m2_n34_153# cm_ncell_2_1/cm_ncell_1_1/sky130_fd_pr__nfet_g5v0d10v5_QKV39N_0/a_n158_n91#
+ VSUBS cm_ncell_2
.ends

.subckt cm_ncell1_4 li_n11_506# cm_ncell_4_0/cm_ncell_2_1/cm_ncell_1_1/sky130_fd_pr__nfet_g5v0d10v5_QKV39N_0/a_n158_n91#
+ m1_n11_483# cm_ncell_4_0/cm_ncell_2_1/cm_ncell_1_0/sky130_fd_pr__nfet_g5v0d10v5_QKV39N_0/a_100_n91#
+ cm_ncell_4_0/cm_ncell_2_0/cm_ncell_1_1/sky130_fd_pr__nfet_g5v0d10v5_QKV39N_0/a_100_n91#
+ cm_ncell_4_0/VSUBS cm_ncell_4_0/cm_ncell_2_1/cm_ncell_1_0/sky130_fd_pr__nfet_g5v0d10v5_QKV39N_0/a_n158_n91#
+ cm_ncell_4_0/cm_ncell_2_0/cm_ncell_1_0/sky130_fd_pr__nfet_g5v0d10v5_QKV39N_0/a_n158_n91#